 14
no_name:-307.878155671626
C      0.88471     0.54046    -0.05660
H      0.39613     2.85711     0.45171
H      1.00800    -3.72124     1.98471
H      1.96416     0.46792     0.08996
C      0.31668    -1.77782     0.99047
C      0.69421    -2.80682     1.51829
C     -1.07537     1.23825    -0.59302
H     -1.88657     1.86212    -0.97500
H     -2.25829    -0.60841     0.16783
C      0.29743     1.25577    -1.26428
H      0.67504     1.57103    -2.23754
C     -0.07064    -0.56553     0.37347
C     -1.29895    -0.11233     0.02983
C      0.16271     1.87692     0.03469
