 14
no_name:-307.841240236292
H      3.07420     2.07713     1.60736
C      0.84243     0.48116    -0.08526
C     -0.31887     0.21050    -0.80580
H     -3.81272    -1.05594    -2.08198
C      1.86072     0.72532     0.53824
H      3.96822     0.86253     0.66697
C     -1.52849    -0.37637    -0.91487
C     -2.58292    -1.19673    -0.36267
H      3.15853     0.39299     2.19017
H     -4.49621    -2.08115    -0.66815
H     -2.44935    -1.59593     0.64819
C      3.07087     1.02103     1.28830
C     -1.07119     0.38932    -2.01378
C     -3.69178    -1.46087    -1.07266
