 14
no_name:-307.847745560856
H      2.46497     0.44818    -1.11002
H      0.69755    -1.48560    -2.01913
C     -1.61739     0.27968     1.13405
H     -2.75640    -1.38784     0.12379
C     -0.57534    -0.63502    -0.40648
H      1.88814     0.57827     1.68563
C     -1.88674    -0.74135     0.26201
H     -2.18536     0.74648     1.94148
C     -0.24590     0.49417     0.53978
H      0.72931     2.55867    -0.27264
C      1.47125     0.28993    -0.68228
C      1.24531     0.51726     0.80902
C      0.49083    -0.79599    -1.20024
C      0.68287     1.47880    -0.14196
