 14
no_name:-307.887476753153
H     -1.65887    -0.71883     1.64879
C     -0.98902    -1.20534     0.92829
C     -1.02411    -2.62122     0.88065
H     -1.10941    -4.90943     0.83112
C      0.59852     1.79622    -0.53267
H     -0.85370     1.47993     0.94817
H      2.07263     4.41040    -1.89801
C     -0.18875    -0.43120     0.14785
C     -1.07159    -3.83666     0.85664
C      1.33395     2.54006    -1.25077
C     -0.17681     1.01040     0.22109
H      0.48252    -0.90683    -0.57348
H      2.79385     2.89901    -2.73517
C      2.10301     3.31963    -1.99622
