 14
no_name:-307.885976754097
C      1.13408     1.05534    -0.16492
H      0.99321     2.93943    -1.41011
H     -0.56804    -3.02316     1.70177
H      2.15366     1.10296     0.22104
C      0.51893    -1.08504     0.92923
C      0.17009    -2.24242     1.51250
C     -1.04736     0.34601    -0.60832
H     -1.89761     0.43144     0.09477
H     -1.32311    -0.45892    -1.31578
C     -0.76369     1.64044    -1.30918
H     -1.48487     2.16721    -1.93582
C      0.24803     0.04941     0.10709
C      1.47636    -1.77166     1.74921
C      0.50707     2.03605    -1.03911
