 14
no_name:-307.746996803272
H     -0.81831     1.82179     2.19573
H      2.06590    -1.29163    -2.28101
C      1.34225    -1.63612     0.04205
H      1.95138    -1.87473     0.90298
C      1.40370    -1.42017    -1.43629
H     -2.29726     2.48768     1.41625
C     -0.99409     1.48750     0.07065
H     -0.45403    -2.93001    -1.01309
C     -1.21972     2.29552     1.28778
H     -0.73733     3.27941     1.15953
C     -0.41822     0.45435    -0.56329
C      0.41371    -0.69361    -0.59231
C      0.30194    -2.17143    -0.86463
C     -1.27668     1.32649    -1.30229
