 14
no_name:-307.890999273032
H     -0.13570     3.15270     1.33012
C     -0.29686    -1.65050    -0.78816
C      0.77574     1.57943     0.22075
C     -0.13946    -0.70430    -0.02939
C      0.59255     2.85925     0.56814
C     -0.48184    -2.71420    -1.62995
H     -0.78923    -4.49485    -3.04109
H     -0.14131     1.23248     2.78420
H     -0.88128    -0.46756     2.51497
C      0.07246     0.42075     0.82663
H      1.47455     1.33497    -0.58661
C     -0.64366    -3.66138    -2.37994
H      1.16218     3.65891     0.08783
C     -0.34542     0.39474     2.11376
