 14
no_name:-307.97612526276
H      2.79759    -0.53991    -1.17539
H      0.62390    -2.01054    -1.60754
C     -2.08582     0.57804     0.95373
H     -2.45056    -1.32466    -0.27976
C     -0.41479    -0.47907    -0.24719
H      2.16497     1.54400     0.45993
C     -1.73764    -0.56800     0.05429
H     -3.08318     0.75922     1.35558
C      0.12948     0.69769     0.42838
H     -0.90929     2.22936     1.78844
C      1.80031    -0.35893    -0.77325
C      1.45217     0.78702     0.12632
C      0.68952    -1.11163    -0.99507
C     -0.97494     1.33051     1.17588
