 14
no_name:-307.868883359966
C      0.80038    -0.69351    -0.65144
C     -0.25683    -1.47953    -0.60444
C      1.58069     2.40352     1.91868
C      1.29601     1.30349     1.00652
H      2.30666     2.10231     2.69296
H      0.66527     2.74209     2.43177
C      1.05510     0.38328     0.25032
H      2.00516     3.26826     1.38162
H     -1.25765    -3.18955     0.04108
H     -4.50644    -1.66298    -2.35890
H      1.54485    -0.87686    -1.44175
C     -2.53268    -2.02150    -1.25960
C     -3.58124    -1.83606    -1.84232
C     -1.31000    -2.27175    -0.56433
