 14
no_name:-307.749924896669
C      1.12940     0.92332    -0.41060
H     -0.41880     2.48566    -0.49619
H      0.14717    -2.30882     2.90576
H      2.08742     1.44393    -0.47810
C      0.29862    -1.56068     0.64071
C      0.31519    -2.50464     1.85106
C     -1.26674     0.43485    -0.65697
H     -2.08118     0.80314    -0.01126
H     -1.75513     0.03304    -1.56050
C     -0.16912     1.51657    -0.96619
H     -0.10298     1.71658    -2.05135
C      0.88898    -0.29012     0.13923
C      0.61236    -3.13935     0.76458
C     -0.48581    -0.62901     0.02725
