 14
no_name:-307.771317019073
H     -1.93212     1.99772     1.99265
H      0.80437    -0.90324    -2.78790
C      1.73494    -1.91316    -0.00656
H      1.94580    -2.11575     1.04469
C      1.18368    -1.32770    -1.85699
H     -1.99031     2.77592     0.39171
C     -0.56779     1.21482     0.56771
H     -0.39204    -2.75176    -0.73821
C     -1.31566     2.32655     1.13943
H     -0.63717     3.11828     1.49848
C      0.06547     0.29510     0.08942
C      0.81230    -0.76054    -0.46694
C      0.56145    -2.22890    -0.85680
C      2.38654    -1.03934    -1.02413
