 14
no_name:-307.850548242927
H      1.19908    -1.02154     1.06298
C      0.21163    -0.90475     0.59852
C     -0.65664    -1.90243     0.65959
H     -2.22992    -2.96777     1.54764
C      1.25832     2.57610    -0.45129
H     -1.95083     1.55860    -0.29245
H      2.77505     4.29092    -0.54815
C     -0.06955     0.34199    -0.05396
C     -1.51636    -2.88271     0.71874
C      2.06320     3.48830    -0.50490
C      0.31667     1.55054    -0.40889
H     -1.28308     0.88082    -1.87430
H     -1.55524    -3.65608    -0.05840
C     -1.08333     1.12894    -0.81923
