 14
no_name:-307.869464738221
H     -1.74397     2.67078     1.63612
C      2.55427    -1.72036    -1.63481
H      4.17149    -3.26669    -2.13593
C      3.41042    -2.54515    -1.90633
C     -0.94609     1.03198     0.38463
C      0.71646     0.01818    -1.06726
H     -0.38391     0.65793     2.48518
C     -1.15055     0.47942     1.72158
C      1.58585    -0.79969    -1.33919
H     -3.02014     1.52645     0.96732
H     -1.66083    -0.48659     1.81712
H     -0.52869     1.70453    -1.56531
C     -1.96229     1.68337     1.21124
C     -0.28849     0.97664    -0.77993
