 14
no_name:-307.854920541972
H      1.73086    -2.20991     0.72265
C     -1.70637    -0.38238    -1.62760
H     -3.62021     0.84041    -1.91474
C      0.83842    -0.14776     0.58218
H      0.02895     1.66488     3.24110
C      0.39740    -0.91813    -0.51965
H      0.93408     2.81543     2.07442
C     -0.52397    -1.15389    -1.46837
C      0.69139     0.83007     1.43060
C      0.54755     1.81116     2.28591
H     -0.36376    -1.98585    -2.16442
C     -2.72433     0.26272    -1.78699
H      2.62377    -1.07485    -0.42842
C      1.68752    -1.30438     0.10047
