 14
no_name:-307.901470692528
C     -4.20038    -0.62519     2.77430
H     -5.07754    -0.56940     3.39092
H      2.57603     2.06756    -1.47191
H      2.27359    -1.00071    -1.76496
C     -3.20598    -0.68543     2.07051
H      0.57633     1.14240    -0.24370
C      0.84350     0.13885    -0.59287
C     -1.08632    -0.81395     0.58238
C     -2.08919    -0.75686     1.28467
H      3.68126     0.90256    -2.42370
C      2.02138     0.01140    -1.42570
C      2.80029     1.04540    -1.79336
C      0.06454    -0.91339    -0.22849
H      0.33372    -1.91859    -0.57890
