 14
no_name:-307.945935647807
C      0.62720     0.40418    -0.98232
H     -3.79099     0.79260    -2.52329
H      2.59414     0.13547    -0.04801
C      1.50723     0.06706    -0.01024
H      0.85194     0.80242    -1.97176
C     -1.92667     0.38610    -1.25848
H      2.32272    -0.87661     2.50811
C     -0.75392     0.14523    -0.49485
C     -2.91417     0.60352    -1.93324
C      0.74137    -0.42495     1.15192
C      1.24465    -0.85877     2.32545
H     -1.51041    -0.64017     1.41603
C     -0.67639    -0.34969     0.77907
H      0.59088    -1.20579     3.13043
