 14
no_name:-307.874299303013
H      0.52895     3.77941     1.97183
C     -0.17355     0.53832     0.32300
C      0.37143    -1.04457    -1.50013
H      1.30262    -2.55684    -0.20563
C      0.07307     1.77823     0.96024
C     -0.54496     0.08731    -1.10541
H      0.71938    -1.25163    -2.51148
H     -0.95454     0.81586    -1.80847
C     -0.08170    -0.94872     0.72612
C      0.66001    -1.69059    -0.35881
C     -1.33165    -0.32139     0.12971
H     -0.04572    -1.21667     1.78435
C      0.31541     2.84206     1.49389
H     -2.37306    -0.23389     0.44227
