 14
no_name:-307.948806280223
H      2.02021     1.34788     0.88058
C      1.25606     0.62387     0.58798
C     -0.83934    -0.00171    -0.49293
C      0.39137    -1.69101     0.56190
H      2.23435    -1.07680     1.49932
C     -0.76176    -1.34913    -0.17288
H      0.54148    -2.73193     0.86103
H     -1.50612    -2.09996    -0.44842
C      0.11161     0.92795    -0.13424
C      1.36472    -0.73935     0.92895
C     -1.03498     1.37048    -0.88553
H     -2.68743     2.09523    -1.98621
H     -1.39061     3.36227    -1.49680
C     -1.74366     2.32928    -1.48991
