 14
no_name:-307.880497619383
H      2.53046     2.95130    -1.28456
C      1.53975     1.41646    -0.24065
H      3.35453     2.34524     0.28007
C      0.25222    -0.82255    -0.42866
C      0.55762     0.56548    -0.05284
H      0.79899    -1.57105    -1.00515
C     -1.99437    -1.75934     0.38627
H     -3.70694    -3.24343     0.72144
C     -2.90767    -2.54213     0.57145
H     -1.52615     1.34648     0.26515
C     -0.95790    -0.82211     0.20582
H     -0.73415     0.76286     1.77686
C      2.51397     2.27293    -0.42191
C     -0.80260     0.62923     0.68514
