 14
no_name:-307.878681401927
C     -0.87791     0.34453     1.70727
C      1.40545     0.37089    -0.97503
C     -0.69015    -0.29083     0.33576
H      1.29754     0.83211     2.11570
C     -1.46930    -1.21198    -0.39529
H     -1.76320     0.99396     1.80229
H     -2.77200    -2.70493    -1.54397
H      2.92317     0.42214    -2.68947
C      0.48871     0.35981     0.09711
C      2.21610     0.40545    -1.88132
H      0.39548     2.18715     1.36336
C     -2.16739    -2.00301    -1.00079
C      0.47109     1.08992     1.43374
H     -0.86103    -0.36181     2.55306
