 14
no_name:-307.862732150462
H     -0.29366     1.07657     2.82152
C      0.10288    -0.66402     1.70269
C     -0.05461     1.38246    -2.80494
H     -1.68034    -1.29114     0.56743
C      0.46019    -1.86894     0.96296
C     -0.44083    -0.10085    -0.71475
H      0.27878     2.69059    -4.65762
C      0.29106     0.15736     2.72234
H      1.03911    -0.05739     3.49178
C      0.12319     2.07601    -3.79123
C     -0.25447     0.59948    -1.69746
C     -0.65479    -0.91458     0.44931
H      1.40120    -1.88083     0.40192
H      0.13113    -2.84663     1.33303
