 14
no_name:-307.852661620794
H     -0.80166     2.41106     1.66539
C      1.76185    -1.36776    -1.36479
H      2.59260    -3.47402    -1.79653
C      2.13791    -2.53741    -1.53011
C     -0.47384    -0.48255     0.56500
C      0.36662     0.33581    -0.34917
H     -2.00333     2.22595     0.39526
C     -1.09683     1.75353     0.82350
C      1.40034    -0.05912    -1.25515
H     -0.38720    -1.56691     0.64480
H     -2.05756     0.01779     1.98562
H      0.43634     2.48539    -0.73668
C     -1.31780     0.32059     1.24282
C     -0.00876     1.65163    -0.19184
