 14
no_name:-307.807528718516
C      0.10201     0.33279     1.40628
C      1.14264    -0.08640    -0.85262
C     -1.06060    -1.02357    -0.27892
H      0.47698     2.14695     2.41683
C     -1.95773    -1.20413    -1.24393
H     -0.55342    -0.07014     2.18508
H     -2.23946    -1.14832    -2.29593
H      2.46460     0.71290    -2.53503
C      0.28282    -0.60313     0.21598
C      1.83805     0.33634    -1.74821
H      1.30286     1.95173     0.74863
C      0.65564     1.53807     1.52696
C     -2.33521    -1.53954     0.08120
H      0.73720    -1.53578     0.61120
