 14
no_name:-308.001538207277
C     -0.33801    -1.83187     0.84007
C      0.06762    -2.24378    -0.43354
H      0.73580    -1.60824    -2.39056
C     -0.39435    -0.47459     1.15531
H      0.11018    -3.30826    -0.67729
H     -0.19656     4.11683     1.02409
C     -0.04346     0.49409     0.19301
C     -0.10202     1.88902     0.51209
H     -0.70988    -0.14824     2.14828
C      0.41851    -1.28983    -1.39438
C      0.36483     0.06957    -1.08776
C     -0.15203     3.07150     0.78312
H      0.63705     0.81788    -1.83472
H     -0.61230    -2.57470     1.59331
