 17
no_name:-347.193040925546
H      3.04270    -1.12811     1.60504
H      1.06845    -2.80664    -0.08611
C      2.62830    -1.98046     1.05939
H      3.23176    -2.89132     1.03958
H     -0.31096     2.43051     1.10083
H     -2.17432     0.54065     0.65947
H     -1.14810    -1.51162    -0.75677
H     -2.37413     2.37145    -3.14570
C      0.55339    -0.76062     0.40662
C     -0.66060    -0.70983    -0.20180
C     -0.21078     1.39076     0.78949
H      1.72569     0.80685     1.57969
C      0.82158     0.55866     1.02230
C     -1.70889     1.32672    -1.22590
C     -1.28300     0.65520     0.00502
C     -2.06343     1.88127    -2.24252
C      1.43707    -1.92076     0.44350
