  8
no_name:-266.47096760767
C      1.31245    -0.39509     0.14803
H      0.15532    -2.33941     0.03923
C      0.68850     0.95759    -0.09518
C      0.32396    -1.26792    -0.00564
C     -0.64916    -0.16416    -0.30813
C     -0.71808     1.11332     0.45775
C     -1.04157     2.14703    -0.57224
C     -0.34625     0.98613    -1.20716
