 13
no_name:-344.56084216884
C     -0.93686     1.49436     2.30623
H     -1.22378    -0.83044    -2.59453
H      1.59795     0.16687    -2.28265
H      2.08786    -2.12463    -0.39549
C     -1.27427     2.21295     3.23113
H     -1.57359     2.84406     4.04692
C      1.26879    -1.88065    -1.07382
C     -0.55753     0.68931     1.26733
C     -0.21849    -0.02698     0.33630
C      1.04880    -0.73099    -1.98448
C      0.16592    -0.85311    -0.72621
C     -0.32997    -1.25590    -2.13551
C     -0.10161    -2.44187    -1.25919
