  8
no_name:-154.438820425773
C     -0.17172    -0.81607     0.37977
C     -0.37820    -2.01784     0.95065
C      0.16456     0.29519    -0.07843
C      0.53977     1.59356    -0.58666
H      1.62999     1.70243    -0.72649
H     -1.36668    -2.45522     0.70817
H      0.01642     1.87213    -1.51836
H      0.24726     2.33668     0.17990
