 10
no_name:-267.836894712515
C     -0.01226     0.37944    -0.06918
C      0.60610    -0.79519    -0.47269
H     -0.59055    -2.69611    -0.40765
C      0.32958     1.71830     0.28499
H      1.40461     2.79331     2.05577
H     -0.98523    -1.56243    -1.78637
C      0.88120     2.60471     1.11765
C     -0.58812    -1.65912    -0.76778
C     -1.00289    -0.56160     0.17223
C      0.30396     3.10920    -0.06595
