 13
no_name:-304.784480651606
C     11.74946     0.34540    11.66359
C    -24.78951   -10.89986   -15.02894
C    -31.50355   -13.76536    -8.22463
H     59.96063    66.80375    -3.50876
H     78.46657     0.71615   -31.03019
H    -42.77265    18.01560    26.19543
C     24.62452     4.06372    19.27267
C      9.58566     1.73540   -12.95825
C     -1.93917    -3.88694     5.21927
H    -19.90007   -21.68071    60.62545
C    -15.57163    -8.31539    -1.46419
H     17.54050    -4.43612   -32.26536
C    -66.30459   -26.95869   -18.28109
