 13
no_name:-344.663642793687
C      0.86806     1.55616    -0.25294
H      0.46623     0.45716    -2.15106
H      1.42121     2.42493    -0.61368
H     -1.37510    -1.90179    -1.46228
C      0.62551     1.27626     1.11724
H      0.90278     1.90328     1.96282
C      0.32470     0.55734    -1.07563
C     -1.10195    -1.54134    -0.46934
C     -1.30702    -2.23912     0.71690
C     -0.12097     0.09534     1.18227
C     -1.60746    -1.70944     1.89478
C     -0.37023    -0.35755    -0.25070
C     -0.64109    -0.82982     2.06917
