 11
no_name:-268.553160594251
H      4.01845    -3.21972    -0.88096
H     -3.05139     2.96239     0.50687
C     -0.80452     0.40214     0.53338
H     -1.93327     2.42167    -0.89586
C      0.17476    -0.34263     0.23241
C     -1.87326     1.22166     0.87899
C      2.20640    -1.87094    -0.37564
C     -2.33392     2.24318     0.10489
C      3.17190    -2.59747    -0.66065
C      1.17261    -1.10087    -0.08230
H     -2.29134     1.09336     1.88885
