 14
no_name:-379.011247616872
H    -90.70865    50.38566    -2.59216
C     78.00796   -40.69136     1.30367
C    106.57333   -71.51297    -0.76137
C    -25.32474     9.43297    -0.47462
C    -60.16579    27.21115    -1.14271
C    -83.86601    54.48076    -0.44575
H    113.27503   -98.82995    -4.15918
C   -111.25060    64.19195    -0.36707
H   -136.49667    84.18064     0.23472
C    118.16658   -43.07791     4.33309
C      8.93474    -7.11419     0.39157
H    141.24744   -30.19048     8.13678
C     43.16805   -23.70530     0.82792
C   -100.04338    27.15645    -3.57542
