 13
no_name:-307.175695526553
C      1.32077    -1.24519     1.09047
H     -3.41086    -0.01663    -2.19682
C     -1.55720    -0.09398    -1.16831
C      2.20145    -0.45288     1.68990
C     -0.72441    -0.70758    -0.52219
H     -2.11503     0.99651    -2.88907
H      2.65511     1.10681     3.03581
H     -2.92755     1.50140    -1.38897
C     -2.55154     0.62662    -1.94583
H      4.10548     0.31672     2.15972
C      3.01900     0.35581     2.32022
C      0.22193    -1.39510     0.22840
C      0.75555    -2.55512     0.76081
