 13
no_name:-307.258336087455
C     -1.10899    -1.71390    -1.95467
C     -1.69709    -2.63423    -2.91187
C      1.47491     2.33429     2.29679
H     -1.13911    -2.62958    -3.86377
C      0.97100     1.54628     1.45752
C      0.43349     0.70336     0.57401
C      2.01569     3.18187     3.19268
C     -0.61297    -0.93583    -1.14642
H      1.39193     3.70717     3.92408
H     -1.69147    -3.66761    -2.52437
H     -2.74391    -2.36420    -3.13263
H      3.09480     3.36902     3.21559
C     -0.06545    -0.07884    -0.25417
