 10
no_name:-267.948218809386
C      1.81728    -0.87616     0.01158
C      1.23991     0.25691     0.63865
H      2.82240    -1.28289     0.07270
H     -2.52388    -0.12948    -1.01763
C     -1.50244    -0.10817    -0.62961
C      0.19039     0.91808     0.74576
H     -1.89510     1.65600     0.52793
C     -1.14319     0.91186     0.25358
C      0.68642    -1.31523    -0.72283
C     -0.50761    -1.06469    -0.97101
