 12
no_name:-306.658084304343
C      0.14533     3.17539    -2.04377
H     -0.93333     3.01780    -1.96365
H     -1.10114    -4.95483     3.15878
H      0.49407     4.05034    -2.59758
C      1.02398     2.32319    -1.48151
C      0.66259     1.16681    -0.74633
C     -0.55953    -3.07463     1.96016
C     -0.84389    -4.07511     2.59911
C      0.05220    -0.95006     0.60586
C     -0.23527    -1.95893     1.24809
C      0.37644     0.16151    -0.10353
H      2.10042     2.51341    -1.58305
