 12
no_name:-381.40743638464
C      2.92307    -0.64168     0.73756
C     -3.18627     0.79257    -0.66023
H      4.42643    -1.61508     1.84140
C      4.17596    -0.93179     1.02158
C     -4.39537     1.08312    -0.94148
C     -1.95883     0.50110    -0.37667
C      0.48070    -0.07362     0.18344
H      5.00146    -0.49772     0.44548
C      1.70197    -0.36052     0.46111
C     -5.63131     1.38220    -1.23063
C     -0.74404     0.21351    -0.09647
C     -6.84826     1.68567    -1.52586
