 10
no_name:-193.102396018099
H     -0.44273    -2.03468     1.30993
C     -0.19519    -0.63358    -0.42912
C      0.46879     0.60880    -0.73734
H      1.50364     2.58956    -1.22230
H     -0.34993    -0.26824     1.82429
C     -0.59020    -0.98422     1.02799
H      0.13895    -1.49299    -1.02808
C      1.01335     1.66251    -0.99271
H     -2.34559     0.16195     0.01022
C     -1.60354    -0.63812     0.03456
