 12
no_name:-231.747630819229
H     -2.22767     1.98695     0.59173
C      1.85800    -0.74757    -0.30109
H     -1.37572    -0.89212    -1.38515
H     -2.97116     0.55235    -0.19488
H      4.00983    -0.28726     0.35665
C     -0.86088     0.38395     0.22975
C     -2.22678     0.88324     0.54485
C      2.96864    -0.35646     0.09456
C     -0.56205    -0.53653    -0.73726
H     -0.04085     0.72829     0.87285
C      0.67887    -1.22442    -0.76459
H     -2.55308     0.53879     1.54392
