  9
no_name:-267.277744084049
C      1.15790     0.21511     1.00665
C     -0.04128    -0.40594     0.86714
C     -1.04645    -0.72500     0.01209
H     -1.69431    -1.60174     0.11668
H      1.52361     0.65328     1.94132
C     -0.99093     0.06037    -1.18245
C      1.27514     0.58372    -1.42063
C     -0.02952     0.66897    -1.73900
C      1.77130     0.46865    -0.26084
