  8
no_name:-191.841655701272
H     -0.19065     1.92971     0.32388
C     -0.53261    -0.10124    -0.50189
H     -1.44571     0.00812    -1.09125
H     -0.01422    -2.31746    -0.79713
C      0.23382    -1.35480    -0.34611
C      0.09990     0.88566     0.21630
C      1.27910     0.22136     0.82571
C      1.32951    -1.03389     0.49350
