 13
no_name:-269.769034302978
C      1.14778    -0.98733    -0.19476
C      0.82455    -0.07864     0.73581
C     -0.05728     0.96374     1.25622
H      1.71089    -1.44929    -2.17760
H     -2.47390     0.42872     1.16913
C     -1.54423     0.93778     0.93111
H      0.96036    -2.78660    -1.30108
C      0.90427    -1.69832    -1.46748
H     -0.06319    -1.44601    -1.92578
H     -0.77440     2.65438    -0.40533
H      0.27412     1.38915     2.21519
C     -0.86170     1.83169     0.29873
C      2.00243    -0.85048     0.92435
