 13
no_name:-344.667464819767
H      1.68555     1.59983     1.84078
C      0.97379     0.92007     1.36397
C      0.06727    -0.35959    -2.17712
C     -1.01887    -0.37264     1.53680
C     -1.67029    -0.98788     0.61534
H      0.49096    -0.37816    -3.18509
C     -1.07648    -1.17618    -1.91043
C     -0.12842     0.44525     2.14436
H     -0.32475     0.87386     3.13169
H     -1.41206    -1.91085    -2.64847
C      0.99608     0.65579     0.01930
C      0.68483     0.27155    -1.12844
C     -1.58876    -1.14731    -0.65735
