 10
no_name:-267.920452674847
H      0.35583     1.86251     1.78732
C      0.18224     0.92655     1.24981
C      0.97013     0.36820     0.27958
C     -1.00792     0.23544     1.11105
C     -1.53520    -0.62583    -0.93308
C      0.91999    -0.40616    -0.82124
H     -0.25701    -0.74583    -2.65598
C     -1.75744    -0.53902     0.42250
H      1.80802    -0.94000    -1.18061
C     -0.33359    -0.56660    -1.57834
