  9
no_name:-264.952005440311
H   -137.01025   195.73549    48.06990
C     33.81301   -45.85520    -9.89207
C     63.64326   -97.48407   -25.69555
H    -51.87253    48.86460     2.40832
C    -24.66758    55.97910    22.12746
C    -69.72371   100.29877    25.04311
C      4.94679     5.16063     6.22153
C    100.31580  -196.84582   -66.08189
C     78.86240   -67.29446     0.42376
