 10
no_name:-305.30390534973
C      0.19868     1.13640     1.25905
C     -0.39034    -1.40378    -1.60268
H      1.03988     3.40343     1.52917
C     -0.58512    -2.25635    -2.57312
C     -0.77763    -3.09073    -3.53550
H     -0.06516     1.28154     3.67316
C      0.62720     2.42596     1.77077
C     -0.19764    -0.56826    -0.65422
C     -0.00098     0.27743     0.29812
C      0.17483     1.55706     2.64814
