  9
no_name:-229.877575659751
C     -0.22180     1.24881     0.71513
C      0.61844    -1.93610    -1.03493
H     -0.54374     2.09781     2.82181
C     -0.01801     0.69181    -0.52956
C      0.33331    -0.65420    -1.21307
C     -0.39024     1.69169     1.83886
H      0.81675    -2.57053    -1.90387
C      0.08678     0.58207    -1.84416
H      0.66198    -2.38147    -0.03866
