 10
no_name:-230.494516404594
C     -1.16595    -0.43959    -0.80318
C     -2.16663    -0.79493    -1.39410
H      2.24803    -0.95485    -0.17350
H      0.41262     0.13812     2.27802
H      1.16637     2.11011    -0.19060
H     -3.05238    -1.10573    -1.91449
C      1.43372    -0.29977     0.10267
C      0.60008     0.19516     1.21496
C      0.94149     1.09165     0.09325
C     -0.01178    -0.03014    -0.12202
