 13
no_name:-307.222446835749
H     -0.75614    -0.03505    -3.04582
H      2.05514    -0.93380    -0.06359
H      1.23939    -0.81690    -2.09479
C      0.53602    -0.40981    -1.35953
C     -0.66836     0.05938    -1.95934
H      1.53556    -0.44576     2.00965
C      1.05732    -0.48088    -0.03264
C      0.72947    -0.16691     1.32146
C     -1.69023     0.61432    -1.20368
C     -0.38261     0.41706     1.99258
C     -1.83264     0.83272     0.05700
C     -1.50950     0.84022     1.30245
H     -0.31412     0.51949     3.07971
