 16
no_name:-383.950751986707
H      0.47628     0.89405     5.78141
C      0.68853     0.06788    -2.48665
H     -1.59564     0.91911    -5.99644
H      0.49144    -0.88844     5.76976
C      0.22683     0.01991     2.66994
C      0.12429     0.01212     3.88823
C     -0.14184     0.04444    -4.76482
C      0.00429     0.00160     5.33636
C      0.34163     0.03124     1.31322
C      0.45236     0.04236     0.08743
C     -1.12000     0.00219    -5.62695
C      0.85619     0.08796    -3.89491
H     -1.05421    -0.00942     5.64736
C      0.57477     0.05576    -1.26529
H     -1.50576    -0.95190    -6.00692
H      1.88610     0.13743    -4.27917
