 15
no_name:-271.148210268179
H      2.59668    -2.92813     0.18394
H      2.01156    -0.98287     1.51035
C      1.76589    -2.28401    -0.11470
H      1.23043    -2.55858    -1.02870
H     -1.37336     2.56262     1.01562
H     -2.57452     0.58097    -0.38540
H     -0.72733    -1.10374    -1.40005
H     -1.51136     1.48312    -1.46332
C      0.33661    -0.26828     0.32738
C     -0.61344    -0.32221    -0.64794
C     -0.96168     1.62587     0.63788
H      0.72107     1.24772     1.97674
C      0.10370     0.95407     1.12470
C     -1.51643     0.87164    -0.53922
C      1.42670    -1.20733     0.61026
