 11
no_name:-343.243480055977
H      2.62631    -0.71096     1.02105
C     -0.75488    -1.45566     0.85442
C      0.30809    -0.57345     0.62996
H      2.07267     1.71468    -0.69364
C      0.03182     0.63673    -0.22577
C      1.47175     0.88818    -0.32496
C     -1.26569     0.78379    -0.72984
C      1.74589    -0.31314     0.52432
C     -2.13878    -0.06837    -0.37342
C     -1.89433    -1.14373     0.38559
C      1.37605    -0.52025    -0.96774
