 16
no_name:-346.225671742933
H      1.36342    -1.31888     2.01892
C     -1.50088    -2.85336    -2.53991
C     -4.23402    -2.84367    -5.33242
C      0.15245    -2.36680     0.59975
H     -0.83304    -1.94961     0.83822
H      9.69812    18.85391     3.05078
C     -5.13664    -2.83889    -6.25281
H      1.32976    -3.27959    -0.91761
H      2.13270    -2.79330     1.35148
C      1.17878    -2.35330     1.67723
C     -3.31137    -2.84792    -4.38955
C      0.35058    -2.85632    -0.65518
H      0.81642    -2.90575     2.56272
H      1.65047    16.98667    11.09649
C     -0.63915    -2.84958    -1.64597
C     -2.43025    -2.85144    -3.49192
