  8
no_name:-229.237964265957
H      1.41907     2.39193    -0.35031
C     -0.25789    -2.00187    -0.55668
C     -0.43521    -3.20549    -0.98649
C     -0.06552    -0.78319    -0.13792
C      0.13355     0.42556     0.28560
C      0.74187     1.75049     0.20921
H     -0.59566     1.86667     2.10593
C     -0.07761     1.53685     1.20822
