  9
no_name:-267.250734351632
C     -1.52782     0.32576     0.07939
C      0.43033    -1.09540    -0.89849
C     -0.37606     0.90198     0.85680
H     -2.04471     1.06962    -0.54996
C      1.66996    -0.81575    -0.38309
C      0.85308     0.82265     1.02509
C     -0.72175    -0.66665    -0.71329
C      1.86350     0.06355     0.49299
H     -2.29296    -0.14560     0.71893
