 12
no_name:-381.478722832942
C      1.68423    -1.05078     0.26609
C     -3.93917     2.21737    -0.26253
H      5.90767    -3.47862     0.67027
C     -4.98921     2.83373    -0.35759
C      3.92373    -2.33949     0.48088
H     -5.91239     3.37700    -0.43886
C      4.97938    -2.94542     0.58089
C     -1.70630     0.91607    -0.05564
C      2.74879    -1.66430     0.36760
C     -2.76933     1.53205    -0.15849
C     -0.54344     0.24160     0.05237
C      0.52178    -0.37631     0.15414
