  7
no_name:-191.173153864806
H      0.39176     1.10898     1.45895
C      0.18409     0.39766     0.65659
C      1.09834    -0.34170    -0.13721
C     -0.94746     0.38539    -0.23816
C     -0.37586    -0.35696    -1.30357
C      0.52506    -1.29199    -0.91435
H     -1.78554     1.08539    -0.26211
