  7
no_name:-191.122241048445
H      1.53397    -0.09042     1.23725
C      0.71473    -0.15246     0.52979
C      0.10125     0.18186    -0.71143
C     -0.72594     0.56726     0.62049
C     -0.73860    -0.79892     0.25654
H      0.09645     0.69572    -1.66612
C      0.34111    -1.39061    -0.43763
