 13
no_name:-344.638547106221
C     -0.50224    -1.16002     1.15333
H     -2.09201    -1.39096    -1.82318
H     -1.94759    -2.62721     0.34379
H      3.29917     1.27039     0.59649
C     -1.40468    -1.69128     0.18556
C     -1.48422    -1.00614    -0.99826
C      0.36446    -0.43430     1.64205
C     -0.70120     0.18535    -1.12355
C      0.09881     1.05543    -0.79572
C      2.22423     1.23811     0.76565
C      0.88143     1.70820     0.25416
H      0.48807     2.67992     0.58445
C      1.19973     0.64192     1.31672
