 12
no_name:-381.452765764172
C     -1.62944     0.39715    -0.59742
H     -0.65365    -2.72625    -1.48114
C      0.37656     2.40030     1.08948
C     -0.85983     2.41575     0.57042
C     -0.33144    -1.81535    -0.96625
C     -1.18541    -0.73503    -0.87936
C      1.69009     0.34088     0.78796
C      1.54167    -0.77967     0.25771
C     -1.60151     1.62766    -0.07304
C      1.32645     1.57573     1.14950
C      0.97314    -1.83680    -0.42212
H      1.54094    -2.76189    -0.56515
