 11
no_name:-268.570308147072
H      3.23661    -2.34576    -1.82266
H     -2.82731     1.80002    -0.79206
C     -0.36275     0.07454     0.62477
H     -1.58630     3.05979    -0.19988
C      0.09625    -0.85317     1.62836
C     -1.10838     1.03549     0.16855
C      1.68360    -1.47619    -0.38056
C     -1.87082     2.00268    -0.29116
C      2.50742    -1.93479    -1.14915
C      0.72306    -0.91955     0.46139
H     -0.00280    -1.23676     2.64258
