  9
no_name:-267.158632111046
C      1.37129    -0.15797     1.70944
C     -0.76725    -0.40080    -1.19422
H     -1.47720     1.68825    -0.76631
C      0.12205    -0.81165     1.20413
C      0.10908     0.51917     0.51647
C      0.27101    -1.00609    -0.25239
C     -0.89057     0.78739    -0.59197
C      1.40094    -0.17362     0.20934
H     -1.21383    -0.87198    -2.06761
