 16
no_name:-343.57292063235
C     58.18853    12.97521    18.87868
C     39.12715    -6.02876    30.57288
C    -41.03381   -10.41501   -17.65071
H     53.23080    30.57863   -21.44336
H    -25.02339   -36.24678   -30.19827
C    -21.46046   -15.08634   -39.05586
H     44.59556    35.39695   -14.02815
C     63.79576    34.08775    -8.44360
H     72.29840     9.99482   -20.30687
H    -14.47896   -17.65443   -32.73122
H    -47.74106    10.49826    40.09710
C    -15.71776   -24.46601    29.20795
C    -59.33853    -4.91944     4.83242
C     13.39748   -20.21326    29.91299
C    -45.87028   -12.09106    31.53914
H    -74.91763    16.08682     1.44963
