  9
no_name:-192.478837374
C     -0.53033    -0.34483    -1.44296
C     -0.20507    -0.34005    -0.22280
H      1.74749     0.88211     1.17734
H      0.97616     0.52885     2.84815
H     -1.67934    -0.26812    -3.17962
C     -0.66654    -0.38757    -2.76046
C     -0.02943    -0.30821     1.16239
C      0.97064     0.38591     1.76451
H     -0.80122    -0.78339     1.78563
