 17
no_name:-347.219809756647
C      0.50438    -1.63642    -1.34530
C      0.52938    -0.76092    -0.49924
C     -0.66661     1.12493     0.77489
H      0.64742    -2.27692    -3.36760
H     -2.05404     0.30877    -0.60806
C     -1.86869     1.04725     0.17701
H      1.29698    -3.42291    -2.17007
C      0.49568    -2.68773    -2.35439
H     -0.46299    -3.23367    -2.35772
H     -2.68683     1.71637     0.45725
H      1.65735     2.28884     2.89203
C      1.52867     0.67731     1.30319
C     -0.24707     2.04986     1.83717
C      0.51738     0.26769     0.47409
C      1.05045     1.77833     2.14293
H     -0.88932     2.81003     2.28113
H      2.53166     0.25159     1.33419
