 13
no_name:-381.907996858759
H     -1.51495    -1.15926    -2.74731
C     -0.93428    -0.98495    -1.83925
C     -0.24134    -2.00229    -1.15067
C      0.47940    -1.76942    -0.02139
H      0.90334    -1.97987     2.18655
C     -0.04761     1.91935     0.40885
C     -0.79119     0.24656    -1.23153
C     -0.00990     3.10322     0.85177
C      0.03564     4.34277     1.32274
C     -0.07559     0.59423    -0.06497
H      2.39685    -1.64319     1.16109
C      0.56329    -0.52229     0.51367
C      1.30015    -1.60096     1.23331
