 12
no_name:-381.220963249145
H      1.37096     2.52033     1.44141
H     -1.85170    -2.69929    -3.41743
C      0.07330    -0.12592    -0.11537
C      0.45930     0.31205     1.15194
C      1.05333     1.54354     1.79663
C      1.58317     0.25329     2.22374
C     -0.64452    -0.92216    -2.49383
C     -0.26429    -0.50565    -1.22585
C     -1.26542    -1.78543    -3.31271
C     -0.04761     0.89165     2.50517
C      0.38707    -0.50617     2.69136
C     -0.62950    -0.68828    -3.91962
