 16
no_name:-346.689887073566
C     -0.03726     2.39554    -0.34379
C      0.46433     0.23708     0.60867
C     -0.75753     1.78563    -1.37339
H     -1.44818    -0.08546    -2.24315
C     -0.27454    -0.38872    -0.44785
C     -0.21071    -1.82451    -0.22201
H     -1.23045     2.40214    -2.14187
H     -0.67416    -2.58368    -0.85362
C      0.54566    -2.05782     0.93896
H      0.76840    -3.03695     1.36286
C      0.96885    -0.82533     1.46497
H      1.57280    -0.67989     2.36173
C      0.58174     1.62279     0.65901
H      1.14371     2.10901     1.46116
C     -0.88229     0.38320    -1.43335
H      0.04837     3.48460    -0.31465
