 16
no_name:-346.470322765782
C      0.03862     0.83038     0.04647
H      2.12339     0.53805    -0.69021
H      0.22000    -3.10982    -0.99105
C      1.06956     0.39669    -0.98822
H      1.56503    -2.35674    -2.04957
H     -1.66595    -2.12594     0.94413
C      0.01279     3.49139     0.67021
C      0.50731    -1.02087    -0.78990
H     -2.04507    -0.43619     1.66215
C     -1.00221     2.87652     1.43137
C     -0.46621    -0.49832     0.21183
C     -1.45120    -1.05539     0.98558
C      0.77766    -2.22171    -1.30282
H     -1.79877     2.99739     2.16676
H      0.93336     0.82640    -1.99623
C     -0.28302     2.08358     0.61449
