  8
no_name:-154.530155508271
H     -0.24924     0.77998     3.17564
C     -0.02906     0.50171     0.91473
C      0.42883    -0.79194    -1.11920
H      0.49527    -0.83698    -2.20914
C     -0.14874     0.65261     2.11418
C      0.08536     0.34960    -0.49906
H      0.65071    -1.70280    -0.55693
H     -0.12872     1.24425    -1.09741
