  8
no_name:-154.438818513801
H      0.62626     1.23947     2.62505
C     -0.06941     0.43268     0.86788
C      0.01486    -0.94734    -1.44203
H      0.30270    -0.22366    -2.22869
C     -0.27104     1.16500     1.97961
C     -0.03948    -0.21659    -0.19778
H     -0.96308    -1.36391    -1.74211
H      0.77724    -1.74628    -1.45067
