  7
no_name:-116.496294396165
C      0.14551     0.54590    -0.19554
H      0.50869    -1.53995    -0.33971
H     -1.20477    -1.06941    -0.46274
C      0.47349     1.69521    -0.39178
H     -0.38313    -1.03544     1.11746
C     -0.25157    -0.83775     0.04073
H      0.76509     2.71369    -0.56536
