 10
no_name:-155.76709358978
C     -0.22451     0.49014     1.71372
C      0.20070    -0.31425    -0.79946
H     -0.51462    -0.86372    -2.72535
H     -0.97468     1.29785     1.75584
C      0.00594     0.04973     0.34058
C      0.43342    -0.75589    -2.17179
H      0.70210     0.87298     2.17382
H     -0.59143    -0.33689     2.34485
H      1.06079    -0.03645    -2.72464
H      0.94615    -1.73226    -2.19785
