 11
no_name:-156.318336119292
H      1.10356     0.56891    -1.47407
C     -0.95355     0.51944     0.54130
H      1.18897    -1.25716    -1.65492
H     -1.29192     0.40035     1.58438
C     -0.00933    -0.59630     0.14136
H     -0.46326    -1.59859     0.16357
C      1.02804    -0.40835    -0.97687
H      2.00255     0.14621     1.07823
H     -0.46187     1.50244     0.45993
H     -1.84948     0.53584    -0.10238
C      1.42957    -0.52387     0.43304
