  9
no_name:-117.743876445767
H      1.12028    -1.29916     0.45730
H      0.39110    -0.91537    -1.12775
H     -0.61626    -1.52711     0.21446
C      0.23282    -0.86774    -0.03894
C     -0.01631     0.53656     0.42495
H     -0.24010     2.61471     0.04680
H      0.10505     1.54346    -1.44198
H     -0.18032     0.66448     1.50351
C     -0.05238     1.61693    -0.36007
