 10
no_name:-155.636098665022
H     -0.02904     1.06081     1.67688
C     -0.92553    -0.10910     0.11913
C     -0.23028    -0.04429    -1.23411
C      0.22667     0.18217     1.07051
H      0.72530    -0.57723     1.68671
H      0.02581    -0.92350    -1.83950
C      0.92236     0.24788    -0.28291
H     -1.56400     0.79381     0.15673
H      1.56073    -0.65512    -0.32049
H     -0.72892     0.71433    -1.85127
