  8
no_name:-191.916210744902
H      1.94253     1.53081    -0.50744
C      0.29554     0.20663    -0.20072
H     -3.55580    -1.52654     2.28681
C     -0.68976    -0.22927     0.43125
H      1.66545     0.23790    -1.83881
C      1.35974     0.68526    -0.88734
C     -1.74943    -0.71113     1.11840
C     -2.71434    -1.14331     1.74083
