  8
no_name:-154.475842853884
H      0.67635     1.36699     0.10495
C     -0.29017    -0.55925    -0.02491
H      0.22580     0.81044    -1.54336
H      1.60152     0.06607    -0.72502
C     -1.12886    -1.04394     0.89085
H     -1.67196    -0.93834     1.83177
C      0.59834     0.49109    -0.55568
C     -0.84063    -1.85723    -0.23152
