  7
no_name:-153.869985523673
C      0.71105    -0.09788     1.82132
H      0.02012     0.07037     2.66094
H     -0.89355     0.06758    -2.86215
C     -0.13828    -0.01017    -0.67472
C      0.30708    -0.05797     0.57295
C     -0.54969     0.03572    -1.84557
H      1.75863    -0.30017     2.08867
