 14
no_name:-195.6294766879
C     -0.62223    -0.08003     0.13487
H     -0.76038     0.63903     2.18701
H      1.72404    -1.20287    -1.28427
C      0.76101     0.13149     0.12604
H      2.67917     0.23452    -0.85797
H     -1.86993    -0.69867     1.80352
H     -2.21702     0.93509     1.20752
C     -1.40390     0.21632     1.40128
C      1.65659    -0.12403    -1.04642
H      1.28972     0.37264    -1.96245
H      1.22451     0.49797     1.04783
H     -2.39057    -0.71382    -0.94478
H     -0.79875    -0.79800    -1.91101
C     -1.30883    -0.55936    -0.97571
