 13
no_name:-232.373719927433
C     -0.69390     0.45502    -0.87987
H     -1.98433     2.05974    -1.41581
C      0.30444     0.03217    -0.33256
H      0.55074    -2.35460     1.36739
C      1.48109    -0.49241     0.31717
C      1.66924    -0.37141     1.85165
H     -2.80324     0.50584    -1.12581
C     -1.89054     0.96736    -1.53896
H     -1.87197     0.75451    -2.62117
H      2.41289    -0.38537    -0.25709
H      0.88977     0.12924     2.44010
C      1.38095    -1.66006     1.22542
H      2.69261    -0.14534     2.17803
