 12
no_name:-231.783265403362
C     -0.54296     0.35629    -0.61417
H     -1.75690     1.94372    -1.34478
C      0.41389    -0.05100     0.01309
H      1.32586    -2.79974     1.72857
C      1.56644    -0.53081     0.75460
C      1.56622    -0.56981     2.27099
H     -2.63839     0.44855    -0.95223
C     -1.69504     0.84230    -1.36682
H     -1.64326     0.53349    -2.42472
H      2.52322    -0.35563     0.23597
H      1.58482     0.04454     3.16767
C      1.46123    -1.72185     1.68805
