 10
no_name:-230.393976673076
C     -0.14185    -0.11698     0.74371
H     -0.87903     1.41112    -0.99609
C      1.21050     0.37166     0.03284
H      1.20704    -0.13767    -2.24071
C      0.85884    -0.24331    -1.21690
H     -0.36482    -0.79260     2.74254
C     -0.17997    -1.00760    -0.58294
C     -0.28779     0.61642    -0.55082
H     -1.50978     0.60810     2.23714
C     -0.71322    -0.09269     1.98149
