 10
no_name:-230.593219572364
C      0.02011    -0.36063     0.30306
C     -2.13429     0.58080    -0.78913
C      1.18477    -0.89775     0.91116
C      2.41706    -0.36731     0.80147
H      2.59795     0.53877     0.21733
C     -1.00103     0.07846    -0.20908
H     -4.03682     1.41779    -1.75717
H      3.27156    -0.83399     1.29745
C     -3.14885     1.02353    -1.29998
H      1.04121    -1.80898     1.50617
