 11
no_name:-193.706178774071
H      1.37540     1.17562    -0.07621
C      0.32366    -0.81498     0.06329
H      0.36312    -1.55083     0.87893
C      0.60926     0.64574     0.50926
H      0.81721     0.78529     1.58043
H      0.95834    -1.17329    -0.75956
H     -1.32576    -0.47933    -1.43833
C     -1.11554    -0.41111    -0.36057
H     -1.93054    -0.89817     0.19495
C     -0.82986     1.03105     0.10949
C     -1.53331     2.12602     0.16017
