 12
no_name:-231.792987553714
H     -0.78006     0.23163    -3.17254
C     -1.28923    -0.36775    -2.39864
H     -2.36287    -0.11829    -2.43269
C      0.31768     0.35375     1.27004
C      1.55647     0.12575     2.12208
H     -0.24322     1.39911     3.24903
C     -0.72383    -0.10723    -1.08236
H     -1.17915    -1.42974    -2.67621
H      2.47385     0.69464     1.89849
H      1.75207    -0.88102     2.52631
C     -0.25640     0.11916     0.01930
C      0.29363     0.84741     2.48119
