 10
no_name:-230.510719692059
H      2.20520     1.94465     1.23475
H      2.99642     0.76798     0.12166
C      2.08981     1.37721     0.29307
C      0.86290     0.61899     0.22494
C     -2.40553    -1.44085    -0.05846
H     -4.34733    -2.69541    -0.24775
C     -3.46376    -2.09545    -0.14254
C     -0.19198    -0.04828     0.12851
H      2.05536     2.12565    -0.52191
C     -1.29634    -0.74277     0.03545
