 10
no_name:-230.554800363077
H      0.10090     1.95311     0.17179
H      3.92612     0.00499     0.77611
C      0.37085     0.89210     0.18038
C     -1.04642    -1.38001    -0.15189
C     -1.95127    -0.41795    -0.27550
H     -2.98937    -0.13963    -0.44796
C      1.73061     0.54038     0.40651
C     -0.59485    -0.02350    -0.02231
H     -0.81446    -2.44292    -0.15025
C      2.89733     0.25507     0.60250
