 13
no_name:-232.480980920008
C     -0.22281     0.94540    -0.42432
H      0.37623     1.86976    -0.32620
H     -1.08254     1.59933     2.20632
H      0.44667    -1.94555     1.29453
C      0.36543    -0.00857    -1.42841
C      0.66189    -1.20059    -0.80773
H      1.09977    -2.07287    -1.29756
H      0.52431     0.22826    -2.48113
C      0.31727    -1.14001     0.57013
C     -0.22987     0.14397     0.87455
H     -1.24188     1.27058    -0.70496
H     -0.64730    -0.05168     2.96798
C     -0.67915     0.59085     2.08422
