  9
no_name:-192.512294349599
C     -0.16216     0.42236    -1.63887
H     -1.29072     2.26441    -0.82606
C     -0.03796    -0.39299     0.80974
H     -0.68436    -1.84816     2.45108
C     -0.38391    -1.16683     1.67781
H     -0.13596    -0.17846    -2.54425
H      1.40275     0.91527    -0.08143
C      0.37909     0.53355    -0.22658
C     -0.62905     1.41023    -0.94421
