 12
no_name:-157.010444729582
C     -0.21275     0.05638     0.32334
H     -0.67120     0.70363    -1.68795
H     -2.05628    -0.02416    -0.82575
C      1.28797    -0.02006     0.21286
H      1.67313     0.76610    -0.46105
H      1.60097    -0.98509    -0.22446
H     -0.27473     0.34095     2.43014
C     -0.96791    -0.08456    -0.97288
H     -0.73719    -1.04885    -1.46009
H      1.78059     0.09202     1.18994
H     -1.92587     0.29216     1.56138
C     -0.83498     0.23887     1.49583
