 14
no_name:-233.019341424678
H      3.00612     0.09405     0.83330
H      0.34334    -2.01363    -0.12435
C     -0.02686    -1.08819    -0.59611
C      0.75269     0.18095    -0.18816
H     -0.10144    -1.26153    -1.68234
H      2.02534     1.52127    -1.83430
H     -1.72569    -1.09512     0.88291
H     -0.35233     0.82130     1.64392
H     -2.09945    -0.24012    -0.63492
C      2.20377     0.33380     0.13805
C     -1.29523    -0.48545     0.07473
C     -0.47789     0.75049     0.55066
H     -0.83456     1.72617     0.18132
C      1.80308     0.91728    -0.95654
