 15
no_name:-233.645986372408
H     -1.09519     2.44319     1.09764
C      0.25121    -0.85218     0.16910
C      2.29154    -2.34258     0.43606
H      2.84351    -2.43803     1.38986
C     -0.27402     0.16317    -0.29500
H     -2.52934     1.47736     0.67757
H     -0.15430     2.04278    -1.22624
C     -0.92124     1.36997    -0.80129
H      2.38154    -3.32123    -0.07183
C     -1.73807     2.12144     0.26382
H      2.80122    -1.58855    -0.18132
H     -2.21201     3.01493    -0.17267
H     -1.58240     1.10185    -1.64763
H      0.25181    -2.66380     1.28499
C      0.85591    -1.98311     0.67240
