 15
no_name:-233.620528755562
H     -1.90927     2.26832     0.44221
C      1.24560    -0.81441     0.84252
C      1.61001    -2.04921     0.05691
H      1.18365    -2.95334     0.52531
C      0.57955     0.21382     0.37107
H     -2.01583     0.49977     0.51888
H      0.43822     2.06095    -0.57777
C     -0.10166     1.23036    -0.10250
H      1.24306    -1.98986    -0.97814
C     -1.62092     1.34103    -0.08260
H      2.70469    -2.18908     0.02961
H     -2.79137     2.16133    -1.84800
H     -2.01244     0.47487    -2.11736
H      1.57394    -0.78290     1.89175
C     -2.20719     1.32462    -1.45695
