 10
no_name:-155.523107205047
H     -1.38686     0.80843     0.60173
H     -1.09137     0.60358    -1.13389
C     -0.97702     0.06538    -0.17476
H      0.91395    -0.98493    -0.63297
C      0.50203    -0.24373     0.14490
H      0.61637    -0.78353     1.10311
H      1.26602     1.14311    -1.16017
H     -1.74061    -1.32223     1.13015
C      1.62852     0.53380    -0.29285
C     -2.10330    -0.71325     0.26264
