 13
no_name:-232.455576943841
H     -1.38743     0.36249     1.62785
H     -1.72368     1.96554    -0.29572
C     -0.96248    -0.12486    -0.58127
H      2.24539    -1.18066    -0.13205
C      0.25711    -0.84169    -1.03488
H      1.29272     0.06915     2.01562
H      0.37032    -1.30538    -2.01588
H     -1.95698    -0.48525    -0.86217
C     -0.64009     0.35523     0.82831
C      0.74357    -0.11696     1.09153
C      1.23232    -0.78418    -0.03524
H      0.08331     1.87462    -0.67782
C     -0.80884     1.36578    -0.30059
