 15
no_name:-271.157478761504
H      0.80195    -1.86317     2.00450
H     -1.53456    -1.15988    -2.35619
C     -0.63440     0.65635    -1.31576
C      0.04855     0.81237    -0.15040
H      1.24531    -0.06492     2.24095
H     -0.88933     1.45431    -2.01580
H      1.68840     2.00517     0.60134
C     -0.98467    -0.76515    -1.50040
H     -0.60411    -2.55059    -0.27361
C     -0.51538    -1.47829    -0.44670
C      0.16241    -0.53631     0.46626
H      0.40281     2.93217    -0.20931
C      0.59731     2.06900     0.44449
C      0.76766    -0.83608     1.63005
H      0.14655     2.28562     1.42907
