  8
no_name:-266.58135566774
C      0.87059    -0.83320    -0.10175
C     -1.18355     0.44873     0.15694
C      2.12444    -0.98667    -0.26846
C      3.41624    -1.13713    -0.44253
C     -1.88174     1.51261     0.22229
C     -2.59307     2.61306     0.29220
C     -0.47126    -0.70789     0.08299
H     -1.04373    -1.64577     0.18380
