 15
no_name:-271.214419517438
H      2.30975     1.60762    -0.43457
H      2.03531    -0.46266     0.90480
C     -0.98943     1.00484    -1.03424
H     -2.11493    -0.65535    -0.23321
C     -0.05854    -0.71132     0.42646
H     -1.26685    -2.20487     1.43488
H     -1.84672     1.41557    -1.57427
C     -0.21034    -1.98617     1.21843
C      1.33626     1.11146    -0.39624
C      1.18061    -0.05382     0.35739
C     -1.13975    -0.16168    -0.27846
C      0.25019     1.64600    -1.09672
H      0.36946     2.55949    -1.68480
H      0.33154    -1.93334     2.17618
H      0.19852    -2.84854     0.66299
