  7
no_name:-191.234826380679
C      0.27076     0.53120    -0.12377
C     -0.26680    -0.64257     0.10631
H     -1.22205    -2.71754     0.51860
C     -0.78160    -1.75699     0.32938
C      0.81530     1.69942    -0.36534
C      1.33096     2.81202    -0.59540
H      1.77794     3.76804    -0.79212
