  8
no_name:-266.605627727502
C     -0.92129    -0.10245     0.82897
C     -0.84251    -0.30465    -0.55536
C      1.17950     0.64676     0.29520
H     -1.60291    -0.71933    -1.21471
C      1.76064     0.66981    -0.95840
C      0.43794     0.14903    -0.89786
C      0.33352     0.48929     1.36848
C     -0.72959     0.20477     2.20533
