 10
no_name:-230.593222214859
H      1.82829    -2.04798     0.47162
C     -0.58023     2.07729    -0.31967
C     -0.37232    -0.44094     0.26023
H      0.85014    -3.58200     0.91236
C     -0.67462     3.26190    -0.59194
C      0.85985    -2.51912     0.65888
C     -0.47592     0.74712    -0.01488
H     -0.75323     4.30576    -0.83097
H     -1.24206    -2.32833     0.77665
C     -0.28833    -1.82088     0.58193
