 10
no_name:-230.531767574266
H      0.82133    -1.50573     1.67196
C     -0.13836     1.68139    -0.57886
C      0.51149    -0.87949    -0.33554
H      0.82365    -2.83760     0.46372
C     -0.53924     2.81706    -0.40914
C      0.36328    -1.87817     0.74124
C      0.32211     0.37762    -0.77490
H     -0.89133     3.82197    -0.26465
H     -0.70665    -2.03924     0.95393
C      0.95205    -0.57680    -1.64118
