  9
no_name:-229.880901274199
C      0.61179    -0.55624     0.01695
H      2.63805    -1.11915    -0.30104
C     -2.34838     1.85469    -0.44303
C     -1.36176     1.05409    -0.29065
C      1.71786    -1.47091     0.19622
H      1.93359    -1.58994     1.27269
C     -0.34357     0.21747    -0.13094
C     -3.35947     2.67573    -0.59462
H      1.46524    -2.47108    -0.19719
