 11
no_name:-231.126622629864
C     -0.20520    -0.45869    -0.32339
H      0.49990     2.88979    -1.74568
H      1.44571    -0.71881     1.14688
H      0.83994    -2.30068     0.40285
H     -1.04769    -0.24545     1.90390
C      0.05589     0.83815    -0.83089
C      0.62484    -1.25448     0.65643
H     -2.45862    -0.78040    -0.42403
C     -0.76904    -0.90170     1.07536
C      0.29744     1.92619    -1.31768
C     -1.47803    -1.18577    -0.15841
