 13
no_name:-269.829213630339
C      0.58842     0.07411    -0.32945
H     -3.40425    -2.52926     0.27705
H      2.30793     2.80902    -0.39336
H     -2.79060    -1.15894     1.40310
H     -0.62472    -2.46409    -2.33921
C      1.39561     0.93600    -0.03068
C     -1.60056    -1.58789    -0.28998
H      2.18570     2.36192     1.32821
C      2.36399     1.96518     0.31519
C     -2.65538    -1.76775     0.50677
H      3.39282     1.56919     0.27930
C     -0.35780    -0.90336    -0.63710
C     -0.79553    -1.87809    -1.43750
