 15
no_name:-271.159096894958
H      2.04618    -1.97877    -1.12753
C     -0.67105     0.54095     0.33685
H     -0.72539     1.28856    -1.72165
C     -1.64464     1.36498     0.77630
H     -1.97973     1.35671     1.81754
C      0.03269    -0.43560     1.27649
C      1.31790    -1.29280    -0.68670
C      0.68247    -0.29660    -1.54601
H     -2.13190     2.07217     0.09958
H      0.96564    -0.25772    -2.60124
H      1.49794    -2.11427     1.26049
H      0.56500     0.13449     2.06279
C     -0.24779     0.55857    -1.06175
C      1.01607    -1.36781     0.62151
H     -0.71859    -1.02940     1.82893
