 12
no_name:-231.783886827794
C      0.76317     2.45189    -0.10298
H     -1.98747    -2.25837     0.28347
C      0.30913     1.31602     0.44962
H     -0.88960    -3.16390    -0.79562
C     -0.43851    -1.08826    -0.55649
C     -0.93563    -2.37582    -0.02893
C     -0.01961     0.17282    -0.37731
H      0.88835     2.52490    -1.18765
H     -0.36776    -2.69002     0.86136
H      1.01806     3.32413     0.50524
H      0.17980     1.22999     1.53405
C     -0.08361    -0.33869    -1.70422
