  9
no_name:-192.507232378227
H     -0.69907     0.63457     2.02589
C      0.92649    -0.08422     0.61732
H      1.89877    -1.30139    -1.03365
C      1.03382    -0.81925    -0.58530
C     -0.37218     0.21789     1.07655
H     -0.28319    -0.23452    -2.26038
C     -0.98304     0.28556    -0.16891
H     -1.82485     0.93670    -0.42238
C     -0.12583    -0.35222    -1.18448
