 15
no_name:-271.154713053812
C     -0.51528     0.54592    -0.83198
H      2.02999    -1.42997    -1.89474
H      0.21515     0.16972    -2.98124
H      1.70219    -1.43920     0.79098
C      0.05230    -0.05031     0.43602
H      0.10788    -0.31538     2.57736
C      1.09140    -0.86598     0.09017
C      1.26723    -0.86030    -1.36074
H     -0.46689     1.65069    -0.82230
H     -1.75811     1.15068     3.15041
C     -0.43160     0.20730     1.77829
C      0.34180    -0.04412    -1.91921
H     -2.03095     1.55673     1.35251
H     -1.58299     0.28936    -0.96273
C     -1.45813     1.01186     2.10899
