 12
no_name:-231.820601087284
C      1.58966     2.79285     0.20094
H     -0.98701    -3.21410     0.52855
C      0.49200     2.08480     0.22117
H     -1.82592    -2.89395    -1.00856
C     -0.80691    -1.22221    -0.18735
C     -0.92295    -2.65625    -0.42136
C     -0.70590    -0.02675     0.00810
H      2.18859     2.94604     1.10714
H     -0.05128    -3.04175    -0.97620
H      1.95683     3.25117    -0.72564
H     -1.56735     1.91021     0.44439
C     -0.62564     1.37954     0.23959
