  8
no_name:-229.158695763109
C     -0.55877    -0.13381     0.31454
C      0.58269     0.28221    -0.19163
H     -2.56837    -0.69465     0.49007
C      1.81188    -0.45254    -0.82725
C     -1.59807    -0.55593     0.98211
C      1.24800     1.70166    -0.31763
C      1.59775     0.81527    -1.29737
H     -1.53548    -0.78582     2.05279
