 12
no_name:-194.385730575193
C     -0.52247    -0.90223     0.26621
H     -0.71549    -2.98132    -0.13391
H     -2.04691    -1.97485    -0.75141
H      0.61639     2.02008    -1.38603
C      0.95497     1.22549     0.59477
C     -1.33755    -2.09446     0.08508
H     -1.92444    -2.32301     0.99175
C      0.17772     0.10003     0.42843
C      1.16054     2.26749    -0.46290
H      2.23218     2.37840    -0.71380
H      1.45607     1.37036     1.55991
H      0.81970     3.26184    -0.11818
