 10
no_name:-191.406337515687
C    -94.46224    28.23938    79.40510
H   -156.56361    51.11299   131.47286
H   -431.45521   -19.59741   426.27097
H    193.53727  -202.67124   -82.92136
C    159.71513   -69.35474  -116.66883
C   -235.22311    97.43437   176.43939
H   -224.88831   318.84738    45.35554
C     34.23621   -16.12505   -19.78901
C    282.60286  -114.12840  -215.44672
H    475.09072   -70.82270  -424.50349
