  8
no_name:-229.169232017385
C     -0.61340    -0.36060     0.46344
C      0.76800     0.00320     0.32708
H     -2.82197    -0.92292     0.64804
C      1.46468    -0.44316    -1.18792
C     -1.78457    -0.65711     0.55925
C      1.02546     1.69480     0.07256
C      1.26771     0.85250    -0.93368
H      1.46365    -0.31421     1.11072
