 12
no_name:-231.890387519316
H      2.04433     1.44640     0.71972
C      1.18252     0.85538     0.40597
C     -0.01080     1.40742    -0.26537
C     -0.28746    -0.85207    -0.00807
C     -0.88546     0.39932    -0.51344
H     -1.86030     0.46678    -0.99609
H      1.71871    -1.18870     1.01706
H     -1.81388    -2.25454    -0.50239
C      1.02399    -0.48382     0.56069
H     -0.14856     2.46091    -0.51368
C     -0.82967    -2.08400    -0.05658
H     -0.30297    -2.95313     0.34798
