 15
no_name:-233.648005433474
H      1.16247     1.91726    -0.59927
H      0.41675     0.77069     1.89661
H     -1.80394    -1.19103    -1.12691
C      0.82990    -0.18448     1.55906
C     -0.25315     0.28451    -0.78593
H     -0.27320     2.22113    -1.76392
H      1.81213    -0.42377     1.97642
H     -2.00001     0.41988    -2.06235
C      0.24449     1.55523    -1.06797
C      0.52781    -0.60976     0.14445
H      1.32245    -1.17344    -0.36010
C     -1.42671    -0.19318    -1.36135
H      0.17171    -2.33376     1.53515
H     -1.20210    -1.11473     1.46438
C     -0.13891    -1.31219     1.29848
