 10
no_name:-305.300518499767
C      1.19846    -0.59191     1.28707
C      0.69406    -0.83416     0.15810
H      0.10950    -2.05327    -2.35204
C     -0.22395    -0.51839    -0.92426
C     -0.03939     1.46622     1.91741
C      0.77232     0.48960     1.98297
H     -1.18449    -0.75979    -2.78962
C     -0.68174     1.33354     0.70471
C     -0.82970     0.68913    -0.35599
C     -0.44408    -1.15038    -2.09087
