  8
no_name:-229.280618220744
C      0.93986     0.77750    -0.76433
C      0.14355     0.12853    -0.00334
C      1.74685     1.44216    -1.53963
C     -0.65602    -0.52655     0.76316
C     -1.47296    -1.19434     1.54493
H     -2.19246    -1.90844     1.12841
C      2.54467     2.10224    -2.30731
H     -1.45411    -1.05278     2.63152
