  8
no_name:-229.280617374789
C     -0.16099    -0.04980     0.01686
C     -2.00774    -0.73258    -1.65032
C      0.76202     0.28805     0.84740
H      2.11257     1.64761     1.70454
C     -1.07610    -0.38748    -0.80950
C      1.70385     0.63085     1.69586
C     -2.92824    -1.07547    -2.48494
H      2.10381    -0.09405     2.41403
