 11
no_name:-303.804252443095
H     10.95919    -7.08088    22.44143
H    -72.37906    45.71094    26.94303
C     17.06611   -19.52672    15.68955
C    -35.81221    29.04165    -1.55229
C     39.16404   -39.22384     6.42662
C     -1.70881    -4.51812    14.75703
C     34.03264   -32.42545     7.78962
C    -45.80269    46.21330   -20.63477
C    -19.56842    12.27889     8.38217
H    -12.33627    47.46840   -76.97052
C     86.67278   -77.39238     0.44608
