  9
no_name:-229.843881926764
C      0.16009    -0.27501     0.73384
H      1.57615     0.69424    -0.50538
C      0.98851     0.89463     0.40474
C     -1.61919    -1.35538    -0.87972
H      1.66748     1.13350     1.23618
C     -2.33434    -1.54340    -1.92891
C     -0.85404    -1.11752     0.18305
H      0.34333     1.76317     0.19621
C     -0.30200    -1.28373     1.49280
