 11
no_name:-265.842028813479
C     40.66403   -43.94142   -62.84392
H      1.13396   -65.61805  -125.22267
C     41.47559   -26.87935    -3.77688
H     -0.28122     8.50791    15.34853
H   -111.90399    76.23302    45.78806
C    -45.98538    37.88207    28.73779
H    -14.57668    17.37758    16.78503
C    -16.76048    20.41267    32.01593
C      3.82969     6.44784    20.20270
C     78.66962   -18.26587    25.77455
C     24.05131   -11.26302     5.85832
