 12
no_name:-306.610209162366
C     -0.23392    -2.15021    -2.98700
H     -0.39202    -2.54342    -3.97274
C     -0.04888    -1.70206    -1.87092
H     -0.57254     2.19805    -1.31635
H      0.64385     2.33311     4.15499
C      0.01948     0.10561    -0.24951
H      0.46146    -1.89507     0.22937
C      0.16559    -1.19634    -0.55943
C      0.27130     1.65299     1.99980
C      0.47019     2.00746     3.14573
C      0.05084     1.20539     0.69678
C     -0.28003     1.45772    -0.57417
