 12
no_name:-306.527529534273
C      1.20167    -0.79681    -2.82456
H      0.36975    -0.78354    -3.52751
C      1.44710    -0.59244    -1.46485
H     -2.02762     1.41289     1.23829
H     -2.05969     0.86872     2.94718
C     -1.75438     0.59715     1.92631
H     -2.30631    -0.30345     1.61296
C     -0.29767     0.34813     1.88066
C      0.70621    -0.00641     0.96272
C      2.49657    -0.95695    -2.49849
C      1.08845    -0.31372    -0.24527
C      0.93040     0.24727     2.42196
