 12
no_name:-306.618987321353
C     -1.94444     0.40690    -0.60151
C     -0.70574    -1.27484     0.89759
H     -1.05315    -2.13483     1.47997
H      2.58537     0.01749     0.56207
H      1.32552    -1.70697     1.58546
H     -2.07305     2.17242    -1.89392
C      1.50647    -0.00823     0.38550
C      0.77723    -0.99042     0.96633
C     -1.50468     1.47179    -1.28287
C     -0.05332     1.52514    -1.03644
C      0.88246     0.99189    -0.46133
C     -1.53276    -0.53331     0.17298
