 11
no_name:-305.943288834807
C     -1.34471    -0.73241    -0.47305
H     -2.30238    -1.23983    -0.59403
C     -0.56322    -0.20671     0.73664
H     -0.25515    -0.36521    -2.41632
C     -0.38057    -0.32072    -1.33534
C      1.53778     0.84472     0.41713
C     -0.29962     0.05896     2.03042
C      0.45078     0.22555    -0.17090
C      1.30476     0.86397     1.80811
H      2.42492     1.25334    -0.06541
C      0.63208     0.62663     2.91142
