  9
no_name:-192.435236464719
C      0.95481    -0.00781    -0.55613
C     -1.10680     0.17536     0.97978
H     -2.05314    -0.33958     1.19154
H      3.22155     0.11827    -0.83040
C     -0.46774    -0.06028    -0.35612
H     -1.02724    -0.69243    -1.06098
C      2.15738     0.06312    -0.69867
H     -0.50811     0.37926     1.87817
C     -1.15394     1.26373    -0.02093
