 12
no_name:-306.620117716211
C      0.86171     0.07472     1.09436
C     -0.59535    -1.66290    -2.20972
H     -0.85718     3.15315     0.65303
C     -0.09442    -1.07028    -1.08298
C      0.60103     2.46687     2.33179
H      0.99777     2.93411     3.23131
C      0.53275     1.33150     1.46204
H     -1.43328    -2.65698    -4.09938
C      0.34515    -0.53319    -0.07177
H      1.55248    -0.49650     1.72348
C     -1.04156    -2.19291    -3.21470
C     -0.17339     2.56089     1.25747
