 12
no_name:-306.587874057788
C     -0.01474    -1.23892     1.91697
C      0.90618     0.81351    -1.19209
C      0.74397    -0.61547     0.98615
H      0.81240     0.97130    -3.28984
H     -3.35498    -2.13690     3.19162
C      0.99722     1.60612    -2.40667
H      0.24312     2.41062    -2.41326
C     -1.28017    -1.57794     2.39788
C     -2.38303    -1.87359     2.81644
C      0.82456     0.14629    -0.17570
H      1.99448     2.06180    -2.52039
C      1.40213    -1.30028     2.05384
