  8
no_name:-229.142572326557
H     -0.95761     1.54190    -0.17198
C     -0.17631    -0.47073    -1.23721
C     -0.46366     0.56700    -0.16963
C      1.27939    -0.65965    -1.15678
C      0.51338    -1.31230    -0.08368
C      0.13666    -0.16840     0.83758
H      0.27814     0.02575     1.90372
C     -0.76496    -1.70470    -0.69460
