 13
no_name:-307.248402264172
C     -0.41720     2.02558     0.95526
C      0.35378    -1.13578    -0.73708
C      0.04990    -3.39571    -1.99837
H     -1.43503     1.70390     0.71052
H     -0.22211    -5.38999    -3.12365
H     -1.05194     3.82233     1.90831
H      1.68509     1.46480     0.78830
C      0.66193     1.14324     0.53798
H      0.79130     3.52627     1.86563
C      0.21202    -2.23436    -1.35011
C     -0.09615    -4.46186    -2.59861
C     -0.21676     3.18422     1.61017
C      0.49818    -0.00917    -0.10761
