 14
no_name:-307.896755855525
H      4.30114     2.53824     1.17514
C      1.71455     0.64032     0.70644
C     -0.55215    -0.24999    -0.18255
H     -3.99553    -1.98890    -2.60487
C      2.78222     1.06229     1.12572
H      4.87471     0.86485     1.39093
C     -2.81277    -1.14117    -1.06527
C     -4.08413    -1.64122    -1.56148
H      4.02543     1.69410     2.72037
H     -4.85910    -0.85633    -1.53350
H     -4.44316    -2.48943    -0.95399
C      4.05237     1.56213     1.62528
C     -1.74360    -0.72055    -0.64848
C      0.52395     0.17089     0.23722
