  9
no_name:-192.558254433155
C      0.25104     0.87482     1.69373
C     -0.12070    -1.04511    -1.84836
H     -0.38117    -0.34011    -2.65583
C      0.36542     1.45506     2.75878
C      0.01365    -0.35539    -0.57506
H      0.46394     1.96363     3.69911
H     -0.91159    -1.81260    -1.80298
C      0.12610     0.22329     0.49215
H      0.82031    -1.54708    -2.12968
