 13
no_name:-269.850000431983
H      1.12602     2.07750     2.24872
C     -0.01698    -2.28061    -0.87332
C     -0.66173    -1.13383    -0.55146
C      0.01593    -0.01534     0.04276
H      2.30789     2.10053     0.91635
C      0.56815     0.94241     0.54605
H     -0.55731    -3.11536    -1.32374
C      1.23042     2.09100     1.15055
H      0.79689     3.03690     0.78531
H      1.05336    -2.38696    -0.68695
H     -4.31099    -0.70101    -1.16670
C     -2.07209    -0.97851    -0.79139
C     -3.25963    -0.82879    -0.99001
