 11
no_name:-231.182701624637
C     -0.57143     0.91304     0.00928
H      0.43851    -2.48156     0.36231
H      2.50120    -0.18783    -0.18578
H      1.88628    -2.66438    -0.67162
C     -1.65052     1.72852     0.01979
H     -3.48728     3.11349     0.03827
C      1.46676    -2.12886     0.19950
C      0.43282     0.17161    -0.00096
C      1.51842    -0.64537    -0.01157
C     -2.63002     2.46728     0.02829
H      2.07913    -2.42328     1.07127
