 14
no_name:-307.746997503337
H     -0.81705     1.82248     2.19558
H      2.06672    -1.29075    -2.28025
C      1.34173    -1.63611     0.04229
H      1.95056    -1.87496     0.90337
C      1.40399    -1.41984    -1.43602
H     -2.29684     2.48737     1.41684
C     -0.99426     1.48731     0.07083
H     -0.45386    -2.93013    -1.01401
C     -1.21931     2.29561     1.28768
H     -0.73742     3.27964     1.15867
C     -0.41868     0.45391    -0.56325
C      0.41326    -0.69376    -0.59252
C      0.30199    -2.17151    -0.86513
C     -1.27759     1.32579    -1.30203
