 11
no_name:-193.846685344461
H      1.32936     1.08146     0.78027
H     -0.07379    -2.17059    -1.30489
C     -0.76449     0.55339     0.50309
H     -2.05593    -1.19029     0.25859
C      0.96444    -0.30176    -0.86109
H      1.90162    -0.40500    -1.40978
C     -1.12150    -0.66803     0.04363
H     -1.34928     1.20321     1.15562
C      0.59866     0.89928    -0.03180
H      0.58447     1.82959    -0.63256
C     -0.04549    -1.20027    -0.80513
