 13
no_name:-269.817294638427
C      0.97018     0.67043     0.35674
H     -1.04205     0.06506    -2.26430
C     -0.63925    -0.81560     1.08378
H      1.44929     0.71983    -1.90139
H     -1.17697    -1.65304     1.53208
C      0.77981     0.38704    -1.10457
C     -1.22195     0.09552     0.03741
H     -2.31055     0.20166    -0.01954
C     -0.53604     0.04149    -1.29619
C      0.64227    -0.47959     1.27035
H      1.84320     1.29096     0.58536
H      1.37438    -0.98395     1.90361
C     -0.35453     1.39264    -0.05020
