 12
no_name:-231.783109474178
C      0.90756    -0.21058    -0.54769
H     -1.70333    -2.30465    -0.47630
H     -1.71226    -1.13391     0.88297
H      0.69702     3.16988     0.11865
C      1.22553     1.20226    -0.49654
H     -0.50501     1.81288     0.57503
H     -0.80695    -2.68312     0.99700
C      0.11639    -1.25612    -0.26476
C      0.43318     2.10883     0.09565
H      2.16318     1.50629    -0.97510
C     -1.09578    -1.85586     0.32772
C      1.30942    -1.49935    -0.99063
