 13
no_name:-269.824919228389
C     -0.46535    -0.31186    -0.70962
H     -0.06423    -3.53997    -0.64260
H     -1.81457    -3.25739    -0.50048
H      1.95829     1.78598     1.64203
C      0.50223     1.88764    -0.30766
H      1.22552     4.21448    -0.27427
H     -0.77112    -3.09787     0.92894
C     -0.63274    -1.49144    -0.45796
C      1.10143     3.16253    -0.02333
H     -0.82227     1.47836    -1.88506
C     -0.82660    -2.90569    -0.15656
C      1.40850     2.15110     0.77717
C     -0.28869     1.06634    -1.02168
