 10
no_name:-193.13580746807
C     -0.93615    -1.40791    -0.70316
C     -1.27498    -2.35987    -1.42665
C      0.98860     1.49709     0.62945
C     -0.21780     0.61577     0.83506
H      1.65524     1.45088     1.50838
H      0.68182     2.55181     0.51751
C     -0.57518    -0.39267     0.06793
H      1.56089     1.20145    -0.26118
H     -1.56949    -3.18283    -2.04959
H     -0.84277     0.85540     1.71232
