 13
no_name:-266.7270905757
C      6.30391    -2.20689     6.64675
H    -49.57248    47.52743    37.97995
H    -50.02840    55.04988   113.01695
H     76.33277   -30.97552  -111.98738
C     17.08165   -26.47308   -58.26429
H    111.89862    -5.71916  -109.95898
H    -60.41199     0.28711   113.76781
C    -10.50427     6.23512    33.58159
C     66.02705   -17.26791   -87.86842
H    -28.66438   -49.81760   -48.81284
C    -32.01893    13.51257    57.33108
C     17.68603   -12.66907   -22.31010
C    -66.44174    18.83564    76.59117
