 15
no_name:-305.78020116832
H    -69.19399    45.40145    39.88561
C    -40.94023    36.52673    34.38890
H    -38.85033    25.27108    17.54618
C     43.96524   -21.45343    -2.78150
H     -2.68088   -20.63856   -42.91130
H     65.18313   -24.97200     9.66818
H     17.00279   -38.96831   -66.93561
H    -52.76703    47.64912    46.92448
H     61.49821   -42.82060   -34.22653
C     23.14238    -7.13088     6.75288
C     41.62575   -32.51809   -29.36268
C    -50.63328    36.69582    29.25058
C      2.64584     6.88735    15.99901
C     17.44970   -30.57228   -47.35615
C    -18.01814    20.77414    25.03116
