 11
no_name:-193.802553342991
H     -1.85191     0.88279     2.01578
C      0.12244    -0.15531    -0.20868
H      0.57172     1.84556     0.70894
H     -1.09046    -1.71708     1.07553
H      1.04975    -1.72333    -1.29289
C      0.94659    -0.64526    -1.13854
H      1.54175     0.01763    -1.77281
C     -0.25498     1.26609     0.26193
H     -0.76082     1.89051    -0.49518
C     -0.80659    -0.69854     0.79912
C     -1.16573     0.53013     1.24252
