 15
no_name:-271.08857289209
H      1.81740     0.79549     1.42540
H     -1.65176    -0.98395    -0.17643
C      0.37390    -1.05762    -1.07099
C     -0.32018     0.52915     0.69781
H     -1.53398     0.33959     2.86051
H      0.52148    -0.86676    -2.14900
H      0.27049    -2.15404    -0.97332
C     -0.97076     1.80574     1.17052
C     -0.85239    -0.29792    -0.49875
C      1.54046    -0.55011    -0.25228
H     -1.16251     2.85402     0.94749
H      2.56997    -0.87049    -0.43389
H     -1.29701     0.37149    -1.25330
C      1.15841     0.30587     0.70341
C     -1.12329     0.77794     1.95254
