  9
no_name:-192.519973438971
H      3.65061     0.13253    -0.26449
H     -1.63968     1.35519    -0.76364
H     -1.52703     1.19237     1.07055
C     -1.15437    -0.73409    -0.05101
C      1.36892    -0.01999    -0.14083
C     -1.29028     0.75129     0.08906
C      2.58046     0.06481    -0.20565
H     -1.67388    -1.68781    -0.10425
C     -0.02420    -0.07672    -0.06182
