  9
no_name:-155.12008738968
C     -0.22433     1.23031     0.06768
C      0.03898     0.02479     0.07842
H     -1.15356     3.01943     0.82147
H      0.15455    -1.85581    -0.89999
C      0.33835    -1.39907     0.08839
H      1.39749    -1.58577     0.34131
H     -0.27979    -1.93617     0.82736
H     -0.09222     3.23297    -0.70929
C     -0.50667     2.57386     0.05962
