 15
no_name:-271.139955339221
C     -0.74220     0.98156    -0.51951
H      1.37070     0.62891    -0.26082
H     -1.36666     0.70002     2.75008
H     -0.89788     1.29975    -1.55097
H     -2.41424     1.88684     0.55139
C     -1.51250     1.27113     0.55265
C     -0.94386     0.62670     1.74606
C      0.41154     0.10123    -0.08933
C      0.17078    -0.05343     1.39690
H      0.81669    -0.64289     2.04860
H      1.43387    -2.62952    -2.06433
C      0.44873    -1.21907    -0.82173
H      2.38612    -1.07056    -1.67964
C      1.47190    -1.66136    -1.55723
H     -0.45534    -1.83069    -0.71581
