 17
no_name:-309.832210400889
C     -0.09325     1.26772    -0.55407
H      1.52628     0.69923    -1.85105
H     -1.45784    -0.67524     1.88957
H     -0.19700     2.25522    -1.01366
H     -2.31968     2.57334     0.25308
C     -0.95288     0.91014     0.50465
C     -0.79900    -0.37229     1.07022
C      0.87543     0.39597    -1.02643
C      0.16458    -1.25599     0.60999
H      0.25965    -2.24516     1.06627
H      2.14030    -2.78876    -0.49398
C      1.04350    -0.90445    -0.45984
H      2.68886    -1.51551    -1.75386
C      2.02295    -1.79620    -0.93469
H     -2.86049     1.35145     1.43471
C     -1.97908     1.87614     1.03421
H     -1.56431     2.48715     1.85665
