 19
no_name:-348.444609652072
C      0.80768     2.15117    -0.18435
H      0.42130    -0.94057    -2.46120
H     -1.25822    -3.30665     0.44447
H      0.44379     4.11931     0.52454
C     -0.67909    -2.51217    -0.03156
C      0.70881    -1.30806    -1.45831
H     -1.17461     0.42936     1.83937
C     -0.63117    -1.13130     0.46290
C      0.18301    -0.40200    -0.36440
C      0.08726    -2.63696    -1.13936
C      1.16332     3.56222    -0.09887
H      0.24618    -3.54277    -1.72583
H     -2.44971    -0.79212     1.56611
H      1.17489     4.03431    -1.09608
C      0.51097     0.97178    -0.25786
C     -1.36107    -0.64090     1.67081
H      2.16431     3.70164     0.34522
H     -1.05026    -1.19432     2.57427
H      1.81405    -1.34911    -1.45486
