 10
no_name:-342.577018270031
C     -1.30921     0.34740    -1.39426
C     -0.06389    -1.29483    -0.31548
C      1.02588     0.84895     0.42949
C      0.76994    -0.54054     0.53019
C     -0.68017    -0.74303    -1.46367
H      1.80047     1.33232    -0.16370
C     -1.34627     0.31103     1.07886
C     -0.29554     1.30907     0.64702
C     -0.59541    -0.99216     0.99637
C     -1.41214     1.04427    -0.16684
