 16
no_name:-309.175864512615
C      0.34255    -0.04106     0.00521
C     -0.93160    -0.51838    -0.38823
H      3.67842     0.24780     0.00924
C      2.61059     0.34659     0.21287
H      2.56529     1.83911     1.81444
H     -4.15846    -0.73445    -0.69784
C     -2.04184    -0.90677    -0.70399
H      0.02940     1.93793     0.85566
C      2.04540     1.16111     1.13657
H      0.13851     0.65048     2.05921
H      1.73722    -1.12445    -1.28183
C      0.55388     0.99365     1.09334
C      1.56661    -0.39677    -0.48747
H     -3.46866    -1.41011    -2.19378
C     -3.36149    -1.38475    -1.09592
H     -3.54778    -2.40612    -0.72113
