 16
no_name:-234.292739195335
C     -0.60931    -0.38898     0.76594
C      0.15955     0.64217     0.38919
H     -2.47288    -0.58353     1.84845
H     -1.08477    -1.31723     2.66176
H      1.51712    -1.40914    -0.94082
C     -1.39279    -0.45516     2.04293
H     -1.26253     0.45791     2.64501
H      0.63433     0.69800    -3.09181
C      0.46803     0.13886    -2.16618
H     -0.48445    -0.39842    -2.12750
C      0.95534     0.74985    -0.86542
H      2.64398    -0.31783    -1.90245
H      1.49395     1.69685    -0.96600
H      0.22499     1.50795     1.05990
H     -0.68956    -1.26584     0.10866
C      1.65046    -0.45859    -1.46621
