  7
no_name:-153.79066552606
C      0.33459     0.55828     0.37454
C     -0.37442     0.31962    -0.84991
H      1.38505     0.62237     0.66151
C     -0.72477    -0.38555     0.59024
H     -0.65269    -1.38119     1.04944
H      0.04522     0.02419    -1.82151
C     -1.72024     0.03202    -0.38266
