 13
no_name:-269.790399349049
C      0.18538     2.50071    -0.81379
H     -0.97177    -0.57431    -0.55852
H     -1.36759    -3.01245    -0.60485
H      0.44071     4.14787    -2.07804
C      0.38840     1.61141     0.06804
C      0.79898     0.73056     1.05524
H     -0.09139    -3.25597     0.73576
C     -0.64241    -2.57103     0.08303
C     -0.22718     3.33848    -1.74451
C      0.47241    -0.60981     1.05270
C     -0.43093    -1.23904     0.12464
H      0.97003    -1.25630     1.78435
H      1.49472     1.08914     1.82685
