 19
no_name:-348.516013451367
H      0.07641     3.36247     2.78810
C      0.27090     0.56087     0.69707
C     -0.11450    -1.45453    -1.28200
H      1.57951    -2.42643    -0.35364
C      0.50801     1.56978     1.74137
C     -0.94857    -0.32562    -1.21823
H     -1.30799    -2.45999    -2.78770
H     -1.76240    -0.22061    -1.94166
C      1.10472    -0.57045     0.63129
C      0.91534    -1.55725    -0.33526
C     -0.76245     0.66122    -0.25349
H      1.91488    -0.67662     1.35854
C     -0.19922     2.68502     1.97625
H     -1.43310     1.52319    -0.23942
H     -1.07097     2.96593     1.37839
H     -0.15339    -3.52082    -1.93908
C     -0.30192    -2.50720    -2.34428
H      1.36703     1.35881     2.38954
H      0.42597    -2.37805    -3.16482
