 11
no_name:-268.56444766871
C      0.25869     1.72906    -0.21770
H      0.93578    -0.34342    -2.09801
H     -1.14135    -2.49693     1.18040
H      0.36263     4.01222    -0.38971
C     -0.69452    -1.66834     0.63585
C      0.50918    -0.59032    -1.12857
H     -0.89306     0.15292     1.89175
C     -0.49143    -0.36699     1.02000
C      0.21888     0.32353    -0.08355
C     -0.39806    -1.57644    -0.76454
C      0.30813     2.94239    -0.31087
