  8
no_name:-266.47179859867
C      0.33690     1.44196     0.47459
C     -1.33066    -0.31111    -0.49543
C     -0.53405    -1.25704     0.15987
C      0.68709    -0.24750    -1.00557
C      0.65175    -1.11216     0.88881
C     -0.36522     0.75343    -0.53474
C      1.00212     0.20079     0.41986
H      0.08834     2.16628     1.24915
