 11
no_name:-343.292902736907
C      1.00843    -0.23306     1.58341
C     -0.45179     0.12930    -0.50192
C     -0.13413    -0.49456     0.70741
H     -1.61260     2.49037    -4.61894
C      1.00013    -1.42929     2.32259
H      1.82511     0.46627     1.39662
C     -1.06853     1.38649    -2.68273
C     -0.47594    -1.79372     1.21529
C     -0.23207    -1.97964     2.52454
C     -0.74498     0.72956    -1.53174
C     -1.35846     1.97454    -3.71150
