  9
no_name:-267.30091830871
C      1.30308     0.27159     0.90219
C     -0.91651     0.08916    -0.91209
C     -0.96086    -0.61948     0.30283
C      1.11638     0.84090    -0.28809
H     -1.77112     0.00837    -1.59296
C      0.24065     0.89120    -1.22014
C      0.13748    -0.51226     1.17079
C      1.17462    -0.48248     2.11743
H     -1.83234    -1.23017     0.54612
