 10
no_name:-305.205125553909
C     -0.40349     0.02650    -0.64960
C     -1.13965     1.16651    -0.17708
C      0.53665    -0.86487    -0.27603
C     -1.69858     2.18669    -0.81116
C      1.10593    -0.90803     1.01601
C     -2.40796     1.00344    -1.83435
C     -1.24034     0.38152    -1.76150
H      2.05081    -1.00770     3.09944
C      1.60861    -0.96397     2.12100
H      0.86863    -1.59008    -1.02572
