 11
no_name:-305.956820170539
H      0.14489    -0.39436     1.90896
H      2.23280    -1.59362     1.12433
C      0.38643    -0.44780     0.84483
C     -0.52785     0.18789    -0.06927
C      1.54483    -1.11492     0.42545
C     -0.28324     0.16452    -1.49769
C      0.87623    -0.51682    -1.77492
C     -1.66695     0.83804     0.41218
C     -2.71709     1.44388     0.83886
H     -0.97633     0.64680    -2.18821
C      1.66399    -1.06586    -0.96299
