 10
no_name:-267.983771678012
C      0.41248     3.07539     2.43854
C      0.29425     2.02058     1.61051
C      0.18702     1.03134     0.84345
C     -0.03781    -0.98965    -0.73912
C     -0.15704    -2.05106    -1.57133
C     -0.25966    -3.01340    -2.32190
C      0.06612    -0.01363     0.02323
H     -0.35488    -3.85271    -2.98517
H     -0.40748     3.79054     2.56523
H      1.33245     3.24750     3.00772
