  8
no_name:-229.101623121964
H     -0.18055     1.07490     1.72162
C     -0.89595    -0.28000    -0.23607
C      0.45313    -0.47822    -1.17002
H      0.40146    -0.52653    -2.26099
C      0.10948     0.45199     0.87821
C      0.43847    -0.94548     0.84380
C      0.42987     0.83117    -0.47482
C      0.50149    -1.62236    -0.27822
