 13
no_name:-344.660092583318
C      1.23688     0.59270    -1.24610
C      2.06355    -0.47036    -0.77808
C      0.49204    -1.34112     1.04787
H      3.01652    -0.76204    -1.22562
C     -1.25981     1.15795    -0.97758
C     -1.42227     0.00953     1.38343
H     -1.75133     0.60893     2.24771
C      0.14235     1.15719    -1.28564
C     -0.66415    -1.21546     1.71928
C     -1.50914     0.57242     0.18969
C      1.44514    -1.09747     0.24660
H     -2.02540     1.39471    -1.72413
H     -0.93611    -1.81125     2.59530
