  9
no_name:-267.24260707433
C      1.08908     1.49679     0.17003
C      0.30826     0.22579    -0.13748
H     -3.67074    -2.43725     0.95327
C     -2.80401    -1.85091     0.71398
C     -1.80783    -1.18648     0.43883
C      2.39326     1.22541    -0.16751
C      1.69708     0.20389    -0.76717
H      3.36362     1.70732    -0.20207
C     -0.71852    -0.45684     0.13838
