 12
no_name:-306.65252719778
C      1.38739     0.51580    -1.19581
C     -2.13830    -0.51086    -0.14335
C     -0.38195    -0.10616     1.41985
C     -1.75952    -0.47346     1.16335
C     -1.11695    -0.17865    -1.11529
C      1.76552     0.55552     0.11100
C      0.74396     0.22466     1.08321
H     -2.46284    -0.70927     1.96516
H      2.09117     0.75034    -1.99759
H      2.78459     0.82311     0.39927
C      0.01020     0.14722    -1.45261
H     -3.15768    -0.77716    -0.43169
