 13
no_name:-307.284189823627
H      1.63581     0.67007     1.42059
C      0.55638     2.11713     0.15329
H      0.97255     3.07810     0.45889
H     -1.48488     0.14944    -1.67690
C      0.90234     0.90048     0.64992
C     -0.48191     1.94408    -0.87726
H      0.14855    -5.03924     0.60372
C      0.13937    -3.97412     0.46656
C      0.12643    -2.73930     0.30382
C     -0.76804     0.62220    -1.00790
C      0.08793    -0.11502    -0.05240
H     -0.93957     2.75937    -1.43932
C      0.11760    -1.43247     0.13766
