 13
no_name:-307.248402119332
C     -0.97020     2.85004     4.41207
C      0.57338    -0.59851    -1.95133
C     -0.36624    -0.15693     0.29130
C     -0.82941     2.12491     3.42574
H      0.23696    -2.40001    -3.03877
H     -1.09289     3.48308     5.27066
C     -0.20846    -0.94089    -0.77285
C     -0.52454     0.59743     1.33644
C      0.71507    -1.41557    -3.01153
H      1.06101     0.38204    -1.94649
H     -0.70064    -1.92614    -0.77727
H      1.31119    -1.12447    -3.87955
C     -0.67532     1.33721     2.35279
