  9
no_name:-229.942132628793
C      0.33798     0.51268     0.39214
C     -0.80896    -1.12813    -1.21490
C      1.49021     2.16262     1.99575
H     -1.82706    -2.91680    -1.68686
C      0.93709     1.37433     1.22905
H      1.97025     2.85360     2.66302
C     -1.39550    -1.97008    -2.03967
C     -0.22700    -0.29252    -0.39832
H     -1.47878    -1.76053    -3.11491
