 13
no_name:-269.717711493547
H     -1.39527     1.97395     2.26008
C      1.48470    -1.61772    -1.53163
H      2.55305    -3.56783    -2.12466
C      2.05333    -2.65926    -1.84702
C     -0.45200     0.31007     0.92935
C      0.21736     0.48004    -0.66336
H     -1.29576     2.31591     0.45529
C     -1.31294     1.54092     1.25025
C      0.87057    -0.45760    -1.21293
H      0.31502    -0.18214     1.53272
H     -2.66887    -0.46801     1.06627
H     -0.06014     1.49307    -0.97423
C     -1.81841     0.20283     0.98220
