  8
no_name:-229.272729501903
H     -1.51633     0.66585     1.25486
C      1.04134    -1.14474    -0.06832
C     -0.75596     0.36300     0.53171
C     -0.51243     0.97559    -0.69520
C      0.40142     0.54706    -1.47520
C      1.16390    -0.49764    -1.16097
H     -0.10121    -1.26360     1.82562
C      0.07683    -0.77206     0.86638
