  9
no_name:-229.852812162816
C     -0.18515     0.98018    -0.01730
C      0.37496    -0.27612    -0.07635
H     -1.03703     3.11502     0.03161
C      0.99711    -1.29189     0.73953
C      0.22438    -1.56977    -0.69920
C     -0.63479     2.11958     0.00696
H      0.82682    -1.47207     1.80965
H     -0.71029    -2.02556    -1.05312
C      1.40189    -2.27543    -0.24144
