  8
no_name:-154.53016259792
C      0.64485     0.00362     0.28831
H     -2.39999    -0.64910    -1.17053
H     -1.83994    -1.10982     0.55470
C      1.57386     0.07468     1.06784
H     -0.24509     0.40490    -1.62424
C     -0.43024    -0.05931    -0.64731
H      2.39587     0.13263     1.75621
C     -1.61900    -0.63736    -0.40611
