 15
no_name:-308.49549043511
C      0.40736     1.27583    -0.06910
C     -2.01694     1.14185     0.19756
H     -2.80749    -0.90256     0.27396
C      0.51893    -0.13284    -0.09111
H      2.58297    -0.42723     0.49521
C     -1.90758    -0.29322     0.17681
H      2.29516    -0.57697    -1.24686
H     -0.86570     3.00635     0.08453
C      1.86113    -0.79271    -0.25470
H      1.31297     1.88268    -0.16364
H      1.78987    -1.88549    -0.15176
C     -0.66475    -0.88717     0.03597
C     -0.80846     1.91672     0.06953
H     -0.60299    -1.97924     0.02397
C     -3.23440     1.75528     0.33664
