  9
no_name:-192.44706557042
C      0.03291    -0.00248     0.02425
C     -0.93444    -0.99026    -0.28239
H     -1.94868     0.37411     1.32950
C      1.26287     0.62472    -0.09259
H      2.48784     2.13727     0.50465
C     -1.23915    -0.05507     0.62480
H      1.96378     0.16777    -0.81476
H     -1.23804    -1.87467    -0.84088
C      1.45924     1.75478     0.71677
