 15
no_name:-345.862827611442
C     -0.83958     1.11486     1.75230
C     -1.44531     0.34465     0.76247
H      0.50315    -2.04369    -4.23010
C     -0.31635     1.79353     2.61856
C     -0.52600    -0.96128    -1.35072
H      0.07861     2.19388     4.65393
C      0.17058    -1.44942    -2.22325
C      0.31453     2.59554     3.65417
C      1.01525    -2.03129    -3.25369
H      1.96149    -1.47618    -3.36326
H      1.26421    -3.07485    -2.99632
H      1.41089     2.62050     3.54200
C     -1.33153    -0.40630    -0.35925
C     -2.62908    -0.22163     0.20358
H     -0.05818     3.63318     3.62055
