 11
no_name:-305.928145924485
H      2.52214     0.23177     0.97831
C     -0.76826    -0.19708     0.08188
C     -0.72938    -0.64426     1.39012
C      1.45677     0.03187     0.86350
C     -0.36634     0.30959    -1.11274
C      0.69908     0.25687    -0.27160
C      0.60208    -0.50707     1.85859
C     -0.79341     0.67062    -2.41710
C     -1.16452     0.97982    -3.53725
H     -1.57027    -1.03386     1.96394
H      0.93028    -0.78374     2.86611
