 16
no_name:-309.172740029708
C     -1.77950    -1.49310     0.79520
C     -0.06434     1.09698    -1.15925
H     -2.55394    -2.86789     2.21604
H      3.01801     0.77996    -1.05060
C      1.09653     1.74425    -1.39234
C      2.16198     1.19531    -0.48302
C      0.14010     0.08649    -0.09503
H     -3.76799    -1.79458     1.47790
C     -2.84398    -2.36355     1.27915
H      2.59406     1.97875     0.17042
H     -1.02157     1.26341    -1.65523
C     -0.88365    -0.77375     0.39659
H      1.90034    -0.48208     1.07368
H      1.26288     2.54118    -2.11827
C      1.44264     0.13944     0.30420
H     -3.08885    -3.14616     0.54078
