  9
no_name:-192.554170596864
H     -2.31761    -0.32589     1.64365
C     -1.37777     0.23695     1.59876
C      0.26643    -0.03515    -0.39715
H      2.70381    -1.07829    -2.37035
C     -0.54800     0.10319     0.58497
C      1.07872    -0.17468    -1.38090
H     -1.15807     0.91844     2.42902
C      1.91026    -0.32200    -2.39136
H      1.83725     0.30712    -3.28628
