  9
no_name:-192.558250899067
C      0.98050     0.83701     1.10541
C      0.06569     0.15096     0.20662
C     -0.70245    -0.42005    -0.54861
H      1.71225     1.44074     0.54243
C     -1.57426    -1.06419    -1.39070
H      0.43592     1.51460     1.78452
H     -3.03437    -2.13617    -2.79477
H      1.54236     0.11828     1.72554
C     -2.35061    -1.63357    -2.13719
