 17
no_name:-347.119394618182
C     -1.71147    -1.65317     0.95843
C      0.25114     1.70779    -1.98699
H     -2.16153    -3.03676     2.50740
H      3.00893     0.70567    -0.83183
C      1.48437     2.03513    -1.50542
C      2.11642     1.23264    -0.42688
C     -0.04687    -0.01239    -0.29119
H     -3.52088    -1.99864     2.01123
C     -2.63770    -2.54700     1.64163
H      2.55418     1.90318     0.34207
H     -0.16650     2.29756    -2.81305
C     -0.93105    -0.92457     0.37849
H      1.59680    -0.34111     1.04872
H      2.07529     2.83982    -1.95735
C      1.20723     0.24616     0.21062
H     -2.99955    -3.33760     0.96288
C     -0.41385     0.49585    -1.59900
