 15
no_name:-271.087611876413
C     -0.12694     0.11570     0.43742
H      0.21813    -1.73228    -0.72871
H      1.20833     1.88185     0.44141
H      1.78811     0.54877     1.47186
H     -1.28090     0.78713     2.07308
H      2.49041    -0.71687    -0.55083
H     -4.29465    -1.79654     0.34254
C      1.67936     0.00470    -0.72532
C      0.25979    -0.63403    -0.82029
C     -1.24829     0.15540     1.17699
H      1.95616     0.64109    -1.57808
C      1.23044     0.78408     0.54962
H     -0.32702    -0.35294    -1.71102
C     -2.41631    -0.59209     0.85455
C     -3.41340    -1.23294     0.58328
