 12
no_name:-194.381963782741
H      1.29335    -2.02519     1.04911
C      0.50757    -1.26644     1.21899
C      0.83615     0.15262     0.74492
H     -1.77817     1.10985    -1.28226
H     -0.33129     2.11905    -1.00518
H     -1.35856    -1.87207    -0.19307
C     -0.67757     1.09905    -1.23154
H     -0.30749     0.83560    -2.23741
C     -0.19230     0.12170    -0.20998
H      0.15376    -1.35694     2.26234
H      1.58060     0.89313     1.04380
C     -0.58340    -1.18280     0.14711
