 16
no_name:-309.103037365156
C      0.34507     0.03381     0.24233
H      1.66166    -1.71106    -0.15936
H      0.72735     2.08213    -0.52292
H      1.75427     1.63448     0.86761
H     -1.69919    -0.68238     2.74077
H      3.15371     0.22103    -0.62032
H     -5.29684     0.09409     0.49609
C      2.11652     0.35396    -0.96010
C      1.18528    -0.86100    -0.67343
C     -0.72221    -0.15919     0.96417
H      2.13409     0.67606    -2.01113
C      1.24334     1.24446    -0.02720
H      0.63488    -1.24920    -1.54526
C     -3.14229    -0.17601     1.21792
C     -4.28693    -0.03375     0.83687
C     -1.80797    -0.35434     1.69615
