 10
no_name:-305.413196245539
C      0.07055    -0.08681     0.02855
C      1.69470    -1.99483    -0.63642
C     -2.39777     2.81529     1.05167
C      2.45872    -2.89524    -0.94635
H      3.13235    -3.68543    -1.22153
C     -3.15999     3.71474     1.36874
C     -1.54645     1.81399     0.69794
C      0.84233    -0.99257    -0.28799
C     -0.77618     0.90862     0.37666
H     -3.83015     4.50572     1.65003
