 16
no_name:-346.511951229015
C      0.77274     0.78745    -1.99347
C      1.11745    -2.21683     0.01785
C     -2.24889     2.23489     1.57758
C      1.58254    -3.53878     0.41023
H      2.65705    -3.66602     0.19469
C     -3.02466     2.88006     2.26997
C     -1.38472     1.52406     0.80597
C      0.72120    -1.10558    -0.31035
C     -0.60120     0.87238     0.10429
H     -3.70849     3.44087     2.87857
C      0.28345     0.16915    -0.70042
H      1.43039    -3.71138     1.48870
H      1.44962     0.10157    -2.52074
H      1.31001     1.73070    -1.79618
H     -0.07465     1.02879    -2.65710
H      1.03983    -4.33136    -0.13433
